                                   MODFLOW 6
                U.S. GEOLOGICAL SURVEY MODULAR HYDROLOGIC MODEL
                             TRANSPORT MODEL (GWT)
                  VERSION 6.7.0.dev2 (preliminary) 05/20/2025
                               ***DEVELOP MODE***

        MODFLOW 6 compiled May 20 2025 13:40:03 with GCC version 13.3.0

This software is preliminary or provisional and is subject to 
revision. It is being provided to meet the need for timely best 
science. The software has not received final approval by the U.S. 
Geological Survey (USGS). No warranty, expressed or implied, is made 
by the USGS or the U.S. Government as to the functionality of the 
software and related material nor shall the fact of release 
constitute any such warranty. The software is provided on the 
condition that neither the USGS nor the U.S. Government shall be held 
liable for any damages resulting from the authorized or unauthorized 
use of the software.


As a work of the United States Government, this USGS product is 
in the public domain within the United States. You can copy, 
modify, distribute, and perform the work, even for commercial 
purposes, all without asking permission. Additionally, USGS 
waives copyright and related rights in the work worldwide 
through CC0 1.0 Universal Public Domain Dedication 
(https://creativecommons.org/publicdomain/zero/1.0/).

The following GNU Lesser General Public License (LGPL) libraries
are used in this USGS product:

    SPARSKIT version 2.0
      ilut, luson, and qsplit 
      (https://www-users.cse.umn.edu/~saad/software/SPARSKIT/)

    RCM - Reverse Cuthill McKee Ordering
      (https://people.math.sc.edu/Burkardt/f_src/rcm/rcm.html)

    BLAS - Basic Linear Algebra Subprograms Level 1
      (https://people.math.sc.edu/Burkardt/f_src/blas1_d/blas1_d.html)

    SPARSEKIT - Sparse Matrix Utility Package
      amux, dperm, dvperm, rperm, and cperm
      (https://people.sc.fsu.edu/~jburkardt/f77_src/sparsekit/sparsekit.html)

The following BSD-3 License libraries are used in this USGS product:

    Modern Fortran DAG Library
      Copyright (c) 2018, Jacob Williams
      All rights reserved.
      (https://github.com/jacobwilliams/daglib)

MODFLOW 6 compiler options: -fdiagnostics-color=always -cpp -I
src/libmf6core.a.p -I src -I ../src -I src/libmf6_external.a.p -iprefix
/opt/homebrew/Cellar/gcc@13/13.3.0/bin/../lib/gcc/13/gcc/aarch64-apple-darwin2
3/13/ -D__DYNAMIC__ -D __APPLE__ -fPIC -mmacosx-version-min=14.0.0
-mcpu=apple-m1 -mlittle-endian -mabi=lp64 -O1 -Wall -Wpedantic
-Wcharacter-truncation -Wno-unused-dummy-argument -Wno-intrinsic-shadow
-Wno-maybe-uninitialized -Wno-uninitialized -std=f2018 -fall-intrinsics
-ffpe-summary=overflow -ffpe-trap=overflow,zero,invalid -J src/libmf6core.a.p

System command used to initiate simulation:


MODFLOW was compiled using uniform precision.

Real Variables
  KIND: 8
  TINY (smallest non-zero value):    2.225074-308
  HUGE (largest value):    1.797693+308
  PRECISION: 15
  SIZE IN BITS: 64

Integer Variables
  KIND: 4
  HUGE (largest value): 2147483647
  SIZE IN BITS: 32

Long Integer Variables
  KIND: 8
  HUGE (largest value): 9223372036854775807
  SIZE IN BITS: 64

Logical Variables
  KIND: 4
  SIZE IN BITS: 32

 NAMEFILE OPTIONS:
    FLOWS WILL BE SAVED TO BUDGET FILE SPECIFIED IN OUTPUT CONTROL
 END NAMEFILE OPTIONS:

 DIS -- STRUCTURED GRID DISCRETIZATION PACKAGE, VERSION 2 : 3/27/2014 - INPUT READ FROM MEMPATH: __INPUT__/GWT_RIVERBASE/DIS                       


 DSP-- DISPERSION PACKAGE, VERSION 1, 1/24/2018 INPUT READ FROM MEMPATH: __INPUT__/GWT_RIVERBASE/DSP                       


 Setting Discretization Options
    Model length unit [0=UND, 1=FEET, 2=METERS, 3=CENTIMETERS] set as 2
 End Setting Discretization Options

 Setting Discretization Dimensions
    NLAY = 3
    NROW = 15
    NCOL = 10
 End Setting Discretization Dimensions

 Setting Discretization Griddata
    DELR set from input file
    DELC set from input file
    TOP set from input file
    BOTM set from input file
 End Setting Discretization Griddata


 FMI -- FLOW MODEL INTERFACE,' VERSION 2, 8/17/2023
  FLOWS PROVIDED BY A GWF MODEL IN THIS SIMULATION

 ADV-- ADVECTION PACKAGE, VERSION 1, 8/25/2017 INPUT READ FROM UNIT 1016


 # File generated by Flopy version 3.9.3 on 06/29/2025 at 15:13:48.
 PROCESSING ADVECTION OPTIONS
    ADVECTION WEIGHTING SCHEME HAS BEEN SET TO: UPSTREAM
 END OF ADVECTION OPTIONS
 Setting DSP Options
    XT3D formulation [0=INACTIVE, 1=ACTIVE, 3=ACTIVE RHS] set to: 0
 End Setting DSP Options

 Setting DSP Griddata
    ALH set from input file
    ATH1 set from input file
 End Setting DSP Griddata


 CNC   -- CNC PACKAGE, VERSION 8, 2/22/2014 INPUT READ FROM MEMPATH: __INPUT__/GWT_RIVERBASE/CNC_0                     

 PROCESSING CNC BASE OPTIONS
 END OF CNC BASE OPTIONS

 PROCESSING CNC BASE DIMENSIONS
    MAXBOUND =       2
 END OF CNC BASE DIMENSIONS
    STRT set from input file

 MST -- MOBILE STORAGE AND TRANSFER PACKAGE, VERSION 1, 7/29/2020 INPUT READ FROM UNIT 1015


 # File generated by Flopy version 3.9.3 on 06/29/2025 at 15:13:48.
 PROCESSING MOBILE STORAGE AND TRANSFER OPTIONS
 END OF MOBILE STORAGE AND TRANSFER OPTIONS
 PROCESSING GRIDDATA

   MOBILE DOMAIN POROSITY =  0.3500000    
 END PROCESSING GRIDDATA

 SSM -- SOURCE-SINK MIXING PACKAGE, VERSION 1, 8/25/2017 INPUT READ FROM UNIT 1018


 # File generated by Flopy version 3.9.3 on 06/29/2025 at 15:13:48.
 PROCESSING SSM OPTIONS
 END OF SSM OPTIONS
 PROCESSING SOURCES
 AUX SOURCE DETECTED.
    USING AUX COLUMN 1 IN PACKAGE CHD-1
 END PROCESSING SOURCES
 OPTIONAL FILEINPUT BLOCK NOT FOUND.  CONTINUING.
      THE LAST TIME STEP WILL BE PRINTED
      THE LAST TIME STEP WILL BE PRINTED
 # File generated by Flopy version 3.9.3 on 06/29/2025 at 15:13:48.

 PROCESSING OC OPTIONS

    BUDGET INFORMATION WILL BE WRITTEN TO:
      UNIT NUMBER: 1029
      FILE NAME: gwt_riverbase.cbc

 OPENED gwt_riverbase.cbc
 FILE TYPE:DATA(BINARY)   UNIT 1029   STATUS:REPLACE             
 FORMAT:UNFORMATTED            ACCESS:STREAM              
 ACTION:READWRITE           

    CONCENTRATION INFORMATION WILL BE WRITTEN TO:
      UNIT NUMBER: 1030
      FILE NAME: gwt_riverbase.ucn

 OPENED gwt_riverbase.ucn
 FILE TYPE:DATA(BINARY)   UNIT 1030   STATUS:REPLACE             
 FORMAT:UNFORMATTED            ACCESS:STREAM              
 ACTION:READWRITE           

 END OF OC OPTIONS

start timestep kper="1" kstp="1" mode="normal"


 BEGIN READING OUTPUT CONTROL FOR STRESS PERIOD 1
      ALL TIME STEPS WILL BE SAVED
      ALL TIME STEPS WILL BE SAVED
      ALL TIME STEPS WILL BE PRINTED
      ALL TIME STEPS WILL BE PRINTED

 END READING OUTPUT CONTROL FOR STRESS PERIOD 1
 UBDSV1 SAVING  STORAGE-AQUEOUS ON UNIT   1029 AT TIME STEP      1, STRESS PERIOD      1
 UBDSV1 SAVING     FLOW-JA-FACE ON UNIT   1029 AT TIME STEP      1, STRESS PERIOD      1
 UBDSV06 SAVING  SOURCE-SINK MIX IN MODEL GWT_RIVERBASE    PACKAGE GWT_RIVERBASE   CONNECTED TO MODEL GWT_RIVERBASE    PACKAGE SSM              ON UNIT   1029 AT TIME STEP      1, STRESS PERIOD      1
 UBDSV06 SAVING              CNC IN MODEL GWT_RIVERBASE    PACKAGE GWT_RIVERBASE   CONNECTED TO MODEL GWT_RIVERBASE    PACKAGE CNC_0            ON UNIT   1029 AT TIME STEP      1, STRESS PERIOD      1
1
  CONCENTRATION IN LAYER   1 AT END OF TIME STEP   1 IN STRESS PERIOD    1
  ---------------------------------------------------------------------------

                1               2               3               4               5               6               7               8               9              10
 ................................................................................................................................................................
   1      1.00000         1.00000         1.00000         1.00000         1.00000         1.00000         1.00000         1.00000         1.00000         1.00000    
   2     0.999998         1.00000        0.999998         1.00000         1.00000         1.00000         1.00000         1.00000         1.00000         1.00000    
   3      1.00000        0.999998         1.00000         1.00000         1.00000         1.00000         1.00000         1.00000         1.00000         1.00000    
   4      1.00000         1.00000        0.999998         1.00000         1.00000         1.00000         1.00000         1.00000         1.00000         1.00000    
   5      1.00000         1.00000         1.00000        0.999998        0.999998         1.00000         1.00000         1.00000         1.00000         1.00000    
   6      1.00000         10.0000         1.00000        0.999998         1.00000        0.999997         1.00000         1.00000         1.00000         1.00000    
   7      1.00000         10.0000         1.00000         1.00000         1.00000         1.00000        0.999997         1.00000         1.00000         1.00000    
   8      1.00000         1.00000         1.00000         1.00000         1.00000         1.00000         1.00000        0.999997        0.999997         1.00000    
   9      1.00000         1.00000         1.00000         1.00000         1.00000         1.00000         1.00000        0.999997         1.00000         1.00000    
  10      1.00000         1.00000         1.00000         1.00000         1.00000         1.00000         1.00000         1.00000         1.00000         1.00000    
  11      1.00000         1.00000         1.00000         1.00000         1.00000         1.00000         1.00000         1.00000         1.00000         1.00000    
  12      1.00000         1.00000         1.00000         1.00000         1.00000         1.00000         1.00000         1.00000         1.00000         1.00000    
  13      1.00000         1.00000         1.00000         1.00000         1.00000         1.00000         1.00000         1.00000         1.00000         1.00000    
  14      1.00000         1.00000         1.00000         1.00000         1.00000         1.00000         1.00000         1.00000         1.00000         1.00000    
  15      1.00000         1.00000         1.00000         1.00000         1.00000         1.00000         1.00000         1.00000         1.00000         1.00000    
1
  CONCENTRATION IN LAYER   2 AT END OF TIME STEP   1 IN STRESS PERIOD    1
  ---------------------------------------------------------------------------

                1               2               3               4               5               6               7               8               9              10
 ................................................................................................................................................................
   1      1.00000         1.00000         1.00000         1.00000         1.00000         1.00000         1.00000         1.00000         1.00000         1.00000    
   2      1.00000         1.00000         1.00000         1.00000         1.00000         1.00000         1.00000         1.00000         1.00000         1.00000    
   3      1.00000         1.00000         1.00000         1.00000         1.00000         1.00000         1.00000         1.00000         1.00000         1.00000    
   4      1.00000         1.00000         1.00000         1.00000         1.00000         1.00000         1.00000         1.00000         1.00000         1.00000    
   5      1.00000         1.00000         1.00000         1.00000         1.00000         1.00000         1.00000         1.00000         1.00000         1.00000    
   6      1.00000         1.00000         1.00000         1.00000         1.00000         1.00000         1.00000         1.00000         1.00000         1.00000    
   7      1.00000         1.00000         1.00000         1.00000         1.00000         1.00000         1.00000         1.00000         1.00000         1.00000    
   8      1.00000         1.00000         1.00000         1.00000         1.00000         1.00000         1.00000         1.00000         1.00000         1.00000    
   9      1.00000         1.00000         1.00000         1.00000         1.00000         1.00000         1.00000         1.00000         1.00000         1.00000    
  10      1.00000         1.00000         1.00000         1.00000         1.00000         1.00000         1.00000         1.00000         1.00000         1.00000    
  11      1.00000         1.00000         1.00000         1.00000         1.00000         1.00000         1.00000         1.00000         1.00000         1.00000    
  12      1.00000         1.00000         1.00000         1.00000         1.00000         1.00000         1.00000         1.00000         1.00000         1.00000    
  13      1.00000         1.00000         1.00000         1.00000         1.00000         1.00000         1.00000         1.00000         1.00000         1.00000    
  14      1.00000         1.00000         1.00000         1.00000         1.00000         1.00000         1.00000         1.00000         1.00000         1.00000    
  15      1.00000         1.00000         1.00000         1.00000         1.00000         1.00000         1.00000         1.00000         1.00000         1.00000    
1
  CONCENTRATION IN LAYER   3 AT END OF TIME STEP   1 IN STRESS PERIOD    1
  ---------------------------------------------------------------------------

                1               2               3               4               5               6               7               8               9              10
 ................................................................................................................................................................
   1      1.00000         1.00000         1.00000         1.00000         1.00000         1.00000         1.00000         1.00000         1.00000         1.00000    
   2      1.00000         1.00000         1.00000         1.00000         1.00000         1.00000         1.00000         1.00000         1.00000         1.00000    
   3      1.00000         1.00000         1.00000         1.00000         1.00000         1.00000         1.00000         1.00000         1.00000         1.00000    
   4      1.00000         1.00000         1.00000         1.00000         1.00000         1.00000         1.00000         1.00000         1.00000         1.00000    
   5      1.00000         1.00000         1.00000         1.00000         1.00000         1.00000         1.00000         1.00000         1.00000         1.00000    
   6      1.00000         1.00000         1.00000         1.00000         1.00000         1.00000         1.00000         1.00000         1.00000         1.00000    
   7      1.00000         1.00000         1.00000         1.00000         1.00000         1.00000         1.00000         1.00000         1.00000         1.00000    
   8      1.00000         1.00000         1.00000         1.00000         1.00000         1.00000         1.00000         1.00000         1.00000         1.00000    
   9      1.00000         1.00000         1.00000         1.00000         1.00000         1.00000         1.00000         1.00000         1.00000         1.00000    
  10      1.00000         1.00000         1.00000         1.00000         1.00000         1.00000         1.00000         1.00000         1.00000         1.00000    
  11      1.00000         1.00000         1.00000         1.00000         1.00000         1.00000         1.00000         1.00000         1.00000         1.00000    
  12      1.00000         1.00000         1.00000         1.00000         1.00000         1.00000         1.00000         1.00000         1.00000         1.00000    
  13      1.00000         1.00000         1.00000         1.00000         1.00000         1.00000         1.00000         1.00000         1.00000         1.00000    
  14      1.00000         1.00000         1.00000         1.00000         1.00000         1.00000         1.00000         1.00000         1.00000         1.00000    
  15      1.00000         1.00000         1.00000         1.00000         1.00000         1.00000         1.00000         1.00000         1.00000         1.00000    

 CONCENTRATION WILL BE SAVED ON UNIT 1030 AT END OF TIME STEP    1, STRESS PERIOD    1


  MASS BUDGET FOR ENTIRE MODEL AT END OF TIME STEP    1, STRESS PERIOD   1
  ---------------------------------------------------------------------------------------------------

     CUMULATIVE MASS      M       RATES FOR THIS TIME STEP      M/T          PACKAGE NAME    
     ------------------                 ------------------------                     ----------------

           IN:                                      IN:
           ---                                      ---
     STORAGE-AQUEOUS =           2.0512       STORAGE-AQUEOUS =           2.0512     MST                              
                 RIV =           0.0000                   RIV =           0.0000     SSM_RIV-1                        
                 CHD =           0.0000                   CHD =           0.0000     SSM_CHD-1                        
                 CNC =           0.8597                   CNC =           0.8597     CNC_0                            

            TOTAL IN =           2.9109              TOTAL IN =           2.9109

          OUT:                                     OUT:
          ----                                     ----
     STORAGE-AQUEOUS =           0.9076       STORAGE-AQUEOUS =           0.9076     MST                              
                 RIV =           0.0000                   RIV =           0.0000     SSM_RIV-1                        
                 CHD =           1.9259                   CHD =           1.9259     SSM_CHD-1                        
                 CNC =       7.7439E-02                   CNC =       7.7439E-02     CNC_0                            

           TOTAL OUT =           2.9109             TOTAL OUT =           2.9109

            IN - OUT =      -6.0938E-12              IN - OUT =      -6.0938E-12

 PERCENT DISCREPANCY =          -0.00     PERCENT DISCREPANCY =          -0.00




         TIME SUMMARY AT END OF TIME STEP    1 IN STRESS PERIOD    1
                    SECONDS     MINUTES      HOURS       DAYS        YEARS
                    -----------------------------------------------------------
   TIME STEP LENGTH  86400.      1440.0      24.000      1.0000     2.73785E-03
 STRESS PERIOD TIME  86400.      1440.0      24.000      1.0000     2.73785E-03
         TOTAL TIME  86400.      1440.0      24.000      1.0000     2.73785E-03


end timestep


start timestep kper="2" kstp="1" mode="normal"


 END OF FILE DETECTED IN OUTPUT CONTROL.
 CURRENT OUTPUT CONTROL SETTINGS WILL BE 
 REPEATED UNTIL THE END OF THE SIMULATION.

 OUTPUT CONTROL FOR STRESS PERIOD 2 IS REPEATED USING SETTINGS FROM A PREVIOUS STRESS PERIOD.
 UBDSV1 SAVING  STORAGE-AQUEOUS ON UNIT   1029 AT TIME STEP      1, STRESS PERIOD      2
 UBDSV1 SAVING     FLOW-JA-FACE ON UNIT   1029 AT TIME STEP      1, STRESS PERIOD      2
 UBDSV06 SAVING  SOURCE-SINK MIX IN MODEL GWT_RIVERBASE    PACKAGE GWT_RIVERBASE   CONNECTED TO MODEL GWT_RIVERBASE    PACKAGE SSM              ON UNIT   1029 AT TIME STEP      1, STRESS PERIOD      2
 UBDSV06 SAVING              CNC IN MODEL GWT_RIVERBASE    PACKAGE GWT_RIVERBASE   CONNECTED TO MODEL GWT_RIVERBASE    PACKAGE CNC_0            ON UNIT   1029 AT TIME STEP      1, STRESS PERIOD      2
1
  CONCENTRATION IN LAYER   1 AT END OF TIME STEP   1 IN STRESS PERIOD    2
  ---------------------------------------------------------------------------

                1               2               3               4               5               6               7               8               9              10
 ................................................................................................................................................................
   1      1.00000         1.00000         1.00000         1.00000         1.00000         1.00000         1.00000         1.00000         1.00000         1.00000    
   2     0.999998         1.00000        0.999998         1.00000         1.00000         1.00000         1.00000         1.00000         1.00000         1.00000    
   3      1.00000        0.999998         1.00000         1.00000         1.00000         1.00000         1.00000         1.00000         1.00000         1.00000    
   4      1.00000         1.00000        0.999998         1.00000         1.00000         1.00000         1.00000         1.00000         1.00000         1.00000    
   5      1.00000         1.00000         1.00000        0.999997        0.999997         1.00000         1.00000         1.00000         1.00000         1.00000    
   6      1.00000         10.0000         1.00000        0.999997         1.00000        0.999997         1.00000         1.00000         1.00000         1.00000    
   7      1.00000         10.0000         1.00000         1.00000         1.00000         1.00000        0.999997         1.00000         1.00000         1.00000    
   8      1.00000         1.00000         1.00000         1.00000         1.00000         1.00000         1.00000        0.999997        0.999997         1.00000    
   9      1.00000         1.00000         1.00000         1.00000         1.00000         1.00000         1.00000        0.999997         1.00000         1.00000    
  10      1.00000         1.00000         1.00000         1.00000         1.00000         1.00000         1.00000         1.00000         1.00000         1.00000    
  11      1.00000         1.00000         1.00000         1.00000         1.00000         1.00000         1.00000         1.00000         1.00000         1.00000    
  12      1.00000         1.00000         1.00000         1.00000         1.00000         1.00000         1.00000         1.00000         1.00000         1.00000    
  13      1.00000         1.00000         1.00000         1.00000         1.00000         1.00000         1.00000         1.00000         1.00000         1.00000    
  14      1.00000         1.00000         1.00000         1.00000         1.00000         1.00000         1.00000         1.00000         1.00000         1.00000    
  15      1.00000         1.00000         1.00000         1.00000         1.00000         1.00000         1.00000         1.00000         1.00000         1.00000    
1
  CONCENTRATION IN LAYER   2 AT END OF TIME STEP   1 IN STRESS PERIOD    2
  ---------------------------------------------------------------------------

                1               2               3               4               5               6               7               8               9              10
 ................................................................................................................................................................
   1      1.00000         1.00000         1.00000         1.00000         1.00000         1.00000         1.00000         1.00000         1.00000         1.00000    
   2      1.00000         1.00000         1.00000         1.00000         1.00000         1.00000         1.00000         1.00000         1.00000         1.00000    
   3      1.00000         1.00000         1.00000         1.00000         1.00000         1.00000         1.00000         1.00000         1.00000         1.00000    
   4      1.00000         1.00000         1.00000         1.00000         1.00000         1.00000         1.00000         1.00000         1.00000         1.00000    
   5      1.00000         1.00000         1.00000         1.00000         1.00000         1.00000         1.00000         1.00000         1.00000         1.00000    
   6      1.00000         1.00000         1.00000         1.00000         1.00000         1.00000         1.00000         1.00000         1.00000         1.00000    
   7      1.00000         1.00000         1.00000         1.00000         1.00000         1.00000         1.00000         1.00000         1.00000         1.00000    
   8      1.00000         1.00000         1.00000         1.00000         1.00000         1.00000         1.00000         1.00000         1.00000         1.00000    
   9      1.00000         1.00000         1.00000         1.00000         1.00000         1.00000         1.00000         1.00000         1.00000         1.00000    
  10      1.00000         1.00000         1.00000         1.00000         1.00000         1.00000         1.00000         1.00000         1.00000         1.00000    
  11      1.00000         1.00000         1.00000         1.00000         1.00000         1.00000         1.00000         1.00000         1.00000         1.00000    
  12      1.00000         1.00000         1.00000         1.00000         1.00000         1.00000         1.00000         1.00000         1.00000         1.00000    
  13      1.00000         1.00000         1.00000         1.00000         1.00000         1.00000         1.00000         1.00000         1.00000         1.00000    
  14      1.00000         1.00000         1.00000         1.00000         1.00000         1.00000         1.00000         1.00000         1.00000         1.00000    
  15      1.00000         1.00000         1.00000         1.00000         1.00000         1.00000         1.00000         1.00000         1.00000         1.00000    
1
  CONCENTRATION IN LAYER   3 AT END OF TIME STEP   1 IN STRESS PERIOD    2
  ---------------------------------------------------------------------------

                1               2               3               4               5               6               7               8               9              10
 ................................................................................................................................................................
   1      1.00000         1.00000         1.00000         1.00000         1.00000         1.00000         1.00000         1.00000         1.00000         1.00000    
   2      1.00000         1.00000         1.00000         1.00000         1.00000         1.00000         1.00000         1.00000         1.00000         1.00000    
   3      1.00000         1.00000         1.00000         1.00000         1.00000         1.00000         1.00000         1.00000         1.00000         1.00000    
   4      1.00000         1.00000         1.00000         1.00000         1.00000         1.00000         1.00000         1.00000         1.00000         1.00000    
   5      1.00000         1.00000         1.00000         1.00000         1.00000         1.00000         1.00000         1.00000         1.00000         1.00000    
   6      1.00000         1.00000         1.00000         1.00000         1.00000         1.00000         1.00000         1.00000         1.00000         1.00000    
   7      1.00000         1.00000         1.00000         1.00000         1.00000         1.00000         1.00000         1.00000         1.00000         1.00000    
   8      1.00000         1.00000         1.00000         1.00000         1.00000         1.00000         1.00000         1.00000         1.00000         1.00000    
   9      1.00000         1.00000         1.00000         1.00000         1.00000         1.00000         1.00000         1.00000         1.00000         1.00000    
  10      1.00000         1.00000         1.00000         1.00000         1.00000         1.00000         1.00000         1.00000         1.00000         1.00000    
  11      1.00000         1.00000         1.00000         1.00000         1.00000         1.00000         1.00000         1.00000         1.00000         1.00000    
  12      1.00000         1.00000         1.00000         1.00000         1.00000         1.00000         1.00000         1.00000         1.00000         1.00000    
  13      1.00000         1.00000         1.00000         1.00000         1.00000         1.00000         1.00000         1.00000         1.00000         1.00000    
  14      1.00000         1.00000         1.00000         1.00000         1.00000         1.00000         1.00000         1.00000         1.00000         1.00000    
  15      1.00000         1.00000         1.00000         1.00000         1.00000         1.00000         1.00000         1.00000         1.00000         1.00000    

 CONCENTRATION WILL BE SAVED ON UNIT 1030 AT END OF TIME STEP    1, STRESS PERIOD    2


  MASS BUDGET FOR ENTIRE MODEL AT END OF TIME STEP    1, STRESS PERIOD   2
  ---------------------------------------------------------------------------------------------------

     CUMULATIVE MASS      M       RATES FOR THIS TIME STEP      M/T          PACKAGE NAME    
     ------------------                 ------------------------                     ----------------

           IN:                                      IN:
           ---                                      ---
     STORAGE-AQUEOUS =           2.2218       STORAGE-AQUEOUS =           2.0479     MST                              
                 RIV =           0.0000                   RIV =           0.0000     SSM_RIV-1                        
                 CHD =           0.0000                   CHD =           0.0000     SSM_CHD-1                        
                 CNC =           0.9308                   CNC =           0.8535     CNC_0                            

            TOTAL IN =           3.1527              TOTAL IN =           2.9014

          OUT:                                     OUT:
          ----                                     ----
     STORAGE-AQUEOUS =           0.9824       STORAGE-AQUEOUS =           0.8980     MST                              
                 RIV =           0.0000                   RIV =           0.0000     SSM_RIV-1                        
                 CHD =           2.0864                   CHD =           1.9259     SSM_CHD-1                        
                 CNC =       8.3893E-02                   CNC =       7.7439E-02     CNC_0                            

           TOTAL OUT =           3.1527             TOTAL OUT =           2.9014

            IN - OUT =      -7.5655E-11              IN - OUT =      -8.3475E-10

 PERCENT DISCREPANCY =          -0.00     PERCENT DISCREPANCY =          -0.00




         TIME SUMMARY AT END OF TIME STEP    1 IN STRESS PERIOD    2
                    SECONDS     MINUTES      HOURS       DAYS        YEARS
                    -----------------------------------------------------------
   TIME STEP LENGTH  7200.0      120.00      2.0000     8.33333E-02 2.28154E-04
 STRESS PERIOD TIME  7200.0      120.00      2.0000     8.33333E-02 2.28154E-04
         TOTAL TIME  93600.      1560.0      26.000      1.0833     2.96601E-03


end timestep


start timestep kper="2" kstp="2" mode="normal"

 UBDSV1 SAVING  STORAGE-AQUEOUS ON UNIT   1029 AT TIME STEP      2, STRESS PERIOD      2
 UBDSV1 SAVING     FLOW-JA-FACE ON UNIT   1029 AT TIME STEP      2, STRESS PERIOD      2
 UBDSV06 SAVING  SOURCE-SINK MIX IN MODEL GWT_RIVERBASE    PACKAGE GWT_RIVERBASE   CONNECTED TO MODEL GWT_RIVERBASE    PACKAGE SSM              ON UNIT   1029 AT TIME STEP      2, STRESS PERIOD      2
 UBDSV06 SAVING              CNC IN MODEL GWT_RIVERBASE    PACKAGE GWT_RIVERBASE   CONNECTED TO MODEL GWT_RIVERBASE    PACKAGE CNC_0            ON UNIT   1029 AT TIME STEP      2, STRESS PERIOD      2
1
  CONCENTRATION IN LAYER   1 AT END OF TIME STEP   2 IN STRESS PERIOD    2
  ---------------------------------------------------------------------------

                1               2               3               4               5               6               7               8               9              10
 ................................................................................................................................................................
   1      1.00000         1.00000         1.00000         1.00000         1.00000         1.00000         1.00000         1.00000         1.00000         1.00000    
   2     0.999998         1.00000        0.999997         1.00000         1.00000         1.00000         1.00000         1.00000         1.00000         1.00000    
   3      1.00000        0.999997         1.00000         1.00000         1.00000         1.00000         1.00000         1.00000         1.00000         1.00000    
   4      1.00000         1.00000        0.999997         1.00000         1.00000         1.00000         1.00000         1.00000         1.00000         1.00000    
   5      1.00000         1.00000         1.00000        0.999997        0.999997         1.00000         1.00000         1.00000         1.00000         1.00000    
   6      1.00000         10.0000         1.00000        0.999997         1.00000        0.999997         1.00000         1.00000         1.00000         1.00000    
   7      1.00000         10.0000         1.00000         1.00000         1.00000         1.00000        0.999997         1.00000         1.00000         1.00000    
   8      1.00000         1.00000         1.00000         1.00000         1.00000         1.00000         1.00000        0.999997        0.999997         1.00000    
   9      1.00000         1.00000         1.00000         1.00000         1.00000         1.00000         1.00000        0.999997         1.00000         1.00000    
  10      1.00000         1.00000         1.00000         1.00000         1.00000         1.00000         1.00000         1.00000         1.00000         1.00000    
  11      1.00000         1.00000         1.00000         1.00000         1.00000         1.00000         1.00000         1.00000         1.00000         1.00000    
  12      1.00000         1.00000         1.00000         1.00000         1.00000         1.00000         1.00000         1.00000         1.00000         1.00000    
  13      1.00000         1.00000         1.00000         1.00000         1.00000         1.00000         1.00000         1.00000         1.00000         1.00000    
  14      1.00000         1.00000         1.00000         1.00000         1.00000         1.00000         1.00000         1.00000         1.00000         1.00000    
  15      1.00000         1.00000         1.00000         1.00000         1.00000         1.00000         1.00000         1.00000         1.00000         1.00000    
1
  CONCENTRATION IN LAYER   2 AT END OF TIME STEP   2 IN STRESS PERIOD    2
  ---------------------------------------------------------------------------

                1               2               3               4               5               6               7               8               9              10
 ................................................................................................................................................................
   1      1.00000         1.00000         1.00000         1.00000         1.00000         1.00000         1.00000         1.00000         1.00000         1.00000    
   2      1.00000         1.00000         1.00000         1.00000         1.00000         1.00000         1.00000         1.00000         1.00000         1.00000    
   3      1.00000         1.00000         1.00000         1.00000         1.00000         1.00000         1.00000         1.00000         1.00000         1.00000    
   4      1.00000         1.00000         1.00000         1.00000         1.00000         1.00000         1.00000         1.00000         1.00000         1.00000    
   5      1.00000         1.00000         1.00000         1.00000         1.00000         1.00000         1.00000         1.00000         1.00000         1.00000    
   6      1.00000         1.00000         1.00000         1.00000         1.00000         1.00000         1.00000         1.00000         1.00000         1.00000    
   7      1.00000         1.00000         1.00000         1.00000         1.00000         1.00000         1.00000         1.00000         1.00000         1.00000    
   8      1.00000         1.00000         1.00000         1.00000         1.00000         1.00000         1.00000         1.00000         1.00000         1.00000    
   9      1.00000         1.00000         1.00000         1.00000         1.00000         1.00000         1.00000         1.00000         1.00000         1.00000    
  10      1.00000         1.00000         1.00000         1.00000         1.00000         1.00000         1.00000         1.00000         1.00000         1.00000    
  11      1.00000         1.00000         1.00000         1.00000         1.00000         1.00000         1.00000         1.00000         1.00000         1.00000    
  12      1.00000         1.00000         1.00000         1.00000         1.00000         1.00000         1.00000         1.00000         1.00000         1.00000    
  13      1.00000         1.00000         1.00000         1.00000         1.00000         1.00000         1.00000         1.00000         1.00000         1.00000    
  14      1.00000         1.00000         1.00000         1.00000         1.00000         1.00000         1.00000         1.00000         1.00000         1.00000    
  15      1.00000         1.00000         1.00000         1.00000         1.00000         1.00000         1.00000         1.00000         1.00000         1.00000    
1
  CONCENTRATION IN LAYER   3 AT END OF TIME STEP   2 IN STRESS PERIOD    2
  ---------------------------------------------------------------------------

                1               2               3               4               5               6               7               8               9              10
 ................................................................................................................................................................
   1      1.00000         1.00000         1.00000         1.00000         1.00000         1.00000         1.00000         1.00000         1.00000         1.00000    
   2      1.00000         1.00000         1.00000         1.00000         1.00000         1.00000         1.00000         1.00000         1.00000         1.00000    
   3      1.00000         1.00000         1.00000         1.00000         1.00000         1.00000         1.00000         1.00000         1.00000         1.00000    
   4      1.00000         1.00000         1.00000         1.00000         1.00000         1.00000         1.00000         1.00000         1.00000         1.00000    
   5      1.00000         1.00000         1.00000         1.00000         1.00000         1.00000         1.00000         1.00000         1.00000         1.00000    
   6      1.00000         1.00000         1.00000         1.00000         1.00000         1.00000         1.00000         1.00000         1.00000         1.00000    
   7      1.00000         1.00000         1.00000         1.00000         1.00000         1.00000         1.00000         1.00000         1.00000         1.00000    
   8      1.00000         1.00000         1.00000         1.00000         1.00000         1.00000         1.00000         1.00000         1.00000         1.00000    
   9      1.00000         1.00000         1.00000         1.00000         1.00000         1.00000         1.00000         1.00000         1.00000         1.00000    
  10      1.00000         1.00000         1.00000         1.00000         1.00000         1.00000         1.00000         1.00000         1.00000         1.00000    
  11      1.00000         1.00000         1.00000         1.00000         1.00000         1.00000         1.00000         1.00000         1.00000         1.00000    
  12      1.00000         1.00000         1.00000         1.00000         1.00000         1.00000         1.00000         1.00000         1.00000         1.00000    
  13      1.00000         1.00000         1.00000         1.00000         1.00000         1.00000         1.00000         1.00000         1.00000         1.00000    
  14      1.00000         1.00000         1.00000         1.00000         1.00000         1.00000         1.00000         1.00000         1.00000         1.00000    
  15      1.00000         1.00000         1.00000         1.00000         1.00000         1.00000         1.00000         1.00000         1.00000         1.00000    

 CONCENTRATION WILL BE SAVED ON UNIT 1030 AT END OF TIME STEP    2, STRESS PERIOD    2


  MASS BUDGET FOR ENTIRE MODEL AT END OF TIME STEP    2, STRESS PERIOD   2
  ---------------------------------------------------------------------------------------------------

     CUMULATIVE MASS      M       RATES FOR THIS TIME STEP      M/T          PACKAGE NAME    
     ------------------                 ------------------------                     ----------------

           IN:                                      IN:
           ---                                      ---
     STORAGE-AQUEOUS =           2.3924       STORAGE-AQUEOUS =           2.0476     MST                              
                 RIV =           0.0000                   RIV =           0.0000     SSM_RIV-1                        
                 CHD =           0.0000                   CHD =           0.0000     SSM_CHD-1                        
                 CNC =           1.0019                   CNC =           0.8525     CNC_0                            

            TOTAL IN =           3.3943              TOTAL IN =           2.9001

          OUT:                                     OUT:
          ----                                     ----
     STORAGE-AQUEOUS =           1.0571       STORAGE-AQUEOUS =           0.8968     MST                              
                 RIV =           0.0000                   RIV =           0.0000     SSM_RIV-1                        
                 CHD =           2.2469                   CHD =           1.9259     SSM_CHD-1                        
                 CNC =       9.0346E-02                   CNC =       7.7439E-02     CNC_0                            

           TOTAL OUT =           3.3943             TOTAL OUT =           2.9001

            IN - OUT =      -3.3605E-10              IN - OUT =      -3.1247E-09

 PERCENT DISCREPANCY =          -0.00     PERCENT DISCREPANCY =          -0.00




         TIME SUMMARY AT END OF TIME STEP    2 IN STRESS PERIOD    2
                    SECONDS     MINUTES      HOURS       DAYS        YEARS
                    -----------------------------------------------------------
   TIME STEP LENGTH  7200.0      120.00      2.0000     8.33333E-02 2.28154E-04
 STRESS PERIOD TIME  14400.      240.00      4.0000     0.16667     4.56308E-04
         TOTAL TIME 1.00800E+05  1680.0      28.000      1.1667     3.19416E-03


end timestep


start timestep kper="2" kstp="3" mode="normal"

 UBDSV1 SAVING  STORAGE-AQUEOUS ON UNIT   1029 AT TIME STEP      3, STRESS PERIOD      2
 UBDSV1 SAVING     FLOW-JA-FACE ON UNIT   1029 AT TIME STEP      3, STRESS PERIOD      2
 UBDSV06 SAVING  SOURCE-SINK MIX IN MODEL GWT_RIVERBASE    PACKAGE GWT_RIVERBASE   CONNECTED TO MODEL GWT_RIVERBASE    PACKAGE SSM              ON UNIT   1029 AT TIME STEP      3, STRESS PERIOD      2
 UBDSV06 SAVING              CNC IN MODEL GWT_RIVERBASE    PACKAGE GWT_RIVERBASE   CONNECTED TO MODEL GWT_RIVERBASE    PACKAGE CNC_0            ON UNIT   1029 AT TIME STEP      3, STRESS PERIOD      2
1
  CONCENTRATION IN LAYER   1 AT END OF TIME STEP   3 IN STRESS PERIOD    2
  ---------------------------------------------------------------------------

                1               2               3               4               5               6               7               8               9              10
 ................................................................................................................................................................
   1      1.00000         1.00000         1.00000         1.00000         1.00000         1.00000         1.00000         1.00000         1.00000         1.00000    
   2     0.999997         1.00000        0.999997         1.00000         1.00000         1.00000         1.00000         1.00000         1.00000         1.00000    
   3      1.00000        0.999997         1.00000         1.00000         1.00000         1.00000         1.00000         1.00000         1.00000         1.00000    
   4      1.00000         1.00000        0.999997         1.00000         1.00000         1.00000         1.00000         1.00000         1.00000         1.00000    
   5      1.00000         1.00000         1.00000        0.999997        0.999997         1.00000         1.00000         1.00000         1.00000         1.00000    
   6      1.00000         10.0000         1.00000        0.999997         1.00000        0.999997         1.00000         1.00000         1.00000         1.00000    
   7      1.00000         10.0000         1.00000         1.00000         1.00000         1.00000        0.999997         1.00000         1.00000         1.00000    
   8      1.00000         1.00000         1.00000         1.00000         1.00000         1.00000         1.00000        0.999997        0.999997         1.00000    
   9      1.00000         1.00000         1.00000         1.00000         1.00000         1.00000         1.00000        0.999997         1.00000         1.00000    
  10      1.00000         1.00000         1.00000         1.00000         1.00000         1.00000         1.00000         1.00000         1.00000         1.00000    
  11      1.00000         1.00000         1.00000         1.00000         1.00000         1.00000         1.00000         1.00000         1.00000         1.00000    
  12      1.00000         1.00000         1.00000         1.00000         1.00000         1.00000         1.00000         1.00000         1.00000         1.00000    
  13      1.00000         1.00000         1.00000         1.00000         1.00000         1.00000         1.00000         1.00000         1.00000         1.00000    
  14      1.00000         1.00000         1.00000         1.00000         1.00000         1.00000         1.00000         1.00000         1.00000         1.00000    
  15      1.00000         1.00000         1.00000         1.00000         1.00000         1.00000         1.00000         1.00000         1.00000         1.00000    
1
  CONCENTRATION IN LAYER   2 AT END OF TIME STEP   3 IN STRESS PERIOD    2
  ---------------------------------------------------------------------------

                1               2               3               4               5               6               7               8               9              10
 ................................................................................................................................................................
   1      1.00000         1.00000         1.00000         1.00000         1.00000         1.00000         1.00000         1.00000         1.00000         1.00000    
   2      1.00000         1.00000         1.00000         1.00000         1.00000         1.00000         1.00000         1.00000         1.00000         1.00000    
   3      1.00000         1.00000         1.00000         1.00000         1.00000         1.00000         1.00000         1.00000         1.00000         1.00000    
   4      1.00000         1.00000         1.00000         1.00000         1.00000         1.00000         1.00000         1.00000         1.00000         1.00000    
   5      1.00000         1.00000         1.00000         1.00000         1.00000         1.00000         1.00000         1.00000         1.00000         1.00000    
   6      1.00000         1.00000         1.00000         1.00000         1.00000         1.00000         1.00000         1.00000         1.00000         1.00000    
   7      1.00000         1.00000         1.00000         1.00000         1.00000         1.00000         1.00000         1.00000         1.00000         1.00000    
   8      1.00000         1.00000         1.00000         1.00000         1.00000         1.00000         1.00000         1.00000         1.00000         1.00000    
   9      1.00000         1.00000         1.00000         1.00000         1.00000         1.00000         1.00000         1.00000         1.00000         1.00000    
  10      1.00000         1.00000         1.00000         1.00000         1.00000         1.00000         1.00000         1.00000         1.00000         1.00000    
  11      1.00000         1.00000         1.00000         1.00000         1.00000         1.00000         1.00000         1.00000         1.00000         1.00000    
  12      1.00000         1.00000         1.00000         1.00000         1.00000         1.00000         1.00000         1.00000         1.00000         1.00000    
  13      1.00000         1.00000         1.00000         1.00000         1.00000         1.00000         1.00000         1.00000         1.00000         1.00000    
  14      1.00000         1.00000         1.00000         1.00000         1.00000         1.00000         1.00000         1.00000         1.00000         1.00000    
  15      1.00000         1.00000         1.00000         1.00000         1.00000         1.00000         1.00000         1.00000         1.00000         1.00000    
1
  CONCENTRATION IN LAYER   3 AT END OF TIME STEP   3 IN STRESS PERIOD    2
  ---------------------------------------------------------------------------

                1               2               3               4               5               6               7               8               9              10
 ................................................................................................................................................................
   1      1.00000         1.00000         1.00000         1.00000         1.00000         1.00000         1.00000         1.00000         1.00000         1.00000    
   2      1.00000         1.00000         1.00000         1.00000         1.00000         1.00000         1.00000         1.00000         1.00000         1.00000    
   3      1.00000         1.00000         1.00000         1.00000         1.00000         1.00000         1.00000         1.00000         1.00000         1.00000    
   4      1.00000         1.00000         1.00000         1.00000         1.00000         1.00000         1.00000         1.00000         1.00000         1.00000    
   5      1.00000         1.00000         1.00000         1.00000         1.00000         1.00000         1.00000         1.00000         1.00000         1.00000    
   6      1.00000         1.00000         1.00000         1.00000         1.00000         1.00000         1.00000         1.00000         1.00000         1.00000    
   7      1.00000         1.00000         1.00000         1.00000         1.00000         1.00000         1.00000         1.00000         1.00000         1.00000    
   8      1.00000         1.00000         1.00000         1.00000         1.00000         1.00000         1.00000         1.00000         1.00000         1.00000    
   9      1.00000         1.00000         1.00000         1.00000         1.00000         1.00000         1.00000         1.00000         1.00000         1.00000    
  10      1.00000         1.00000         1.00000         1.00000         1.00000         1.00000         1.00000         1.00000         1.00000         1.00000    
  11      1.00000         1.00000         1.00000         1.00000         1.00000         1.00000         1.00000         1.00000         1.00000         1.00000    
  12      1.00000         1.00000         1.00000         1.00000         1.00000         1.00000         1.00000         1.00000         1.00000         1.00000    
  13      1.00000         1.00000         1.00000         1.00000         1.00000         1.00000         1.00000         1.00000         1.00000         1.00000    
  14      1.00000         1.00000         1.00000         1.00000         1.00000         1.00000         1.00000         1.00000         1.00000         1.00000    
  15      1.00000         1.00000         1.00000         1.00000         1.00000         1.00000         1.00000         1.00000         1.00000         1.00000    

 CONCENTRATION WILL BE SAVED ON UNIT 1030 AT END OF TIME STEP    3, STRESS PERIOD    2


  MASS BUDGET FOR ENTIRE MODEL AT END OF TIME STEP    3, STRESS PERIOD   2
  ---------------------------------------------------------------------------------------------------

     CUMULATIVE MASS      M       RATES FOR THIS TIME STEP      M/T          PACKAGE NAME    
     ------------------                 ------------------------                     ----------------

           IN:                                      IN:
           ---                                      ---
     STORAGE-AQUEOUS =           2.5631       STORAGE-AQUEOUS =           2.0475     MST                              
                 RIV =           0.0000                   RIV =           0.0000     SSM_RIV-1                        
                 CHD =           0.0000                   CHD =           0.0000     SSM_CHD-1                        
                 CNC =           1.0729                   CNC =           0.8524     CNC_0                            

            TOTAL IN =           3.6360              TOTAL IN =           2.8999

          OUT:                                     OUT:
          ----                                     ----
     STORAGE-AQUEOUS =           1.1318       STORAGE-AQUEOUS =           0.8965     MST                              
                 RIV =           0.0000                   RIV =           0.0000     SSM_RIV-1                        
                 CHD =           2.4074                   CHD =           1.9259     SSM_CHD-1                        
                 CNC =       9.6799E-02                   CNC =       7.7439E-02     CNC_0                            

           TOTAL OUT =           3.6360             TOTAL OUT =           2.8999

            IN - OUT =      -3.9972E-10              IN - OUT =      -7.6411E-10

 PERCENT DISCREPANCY =          -0.00     PERCENT DISCREPANCY =          -0.00




         TIME SUMMARY AT END OF TIME STEP    3 IN STRESS PERIOD    2
                    SECONDS     MINUTES      HOURS       DAYS        YEARS
                    -----------------------------------------------------------
   TIME STEP LENGTH  7200.0      120.00      2.0000     8.33333E-02 2.28154E-04
 STRESS PERIOD TIME  21600.      360.00      6.0000     0.25000     6.84463E-04
         TOTAL TIME 1.08000E+05  1800.0      30.000      1.2500     3.42231E-03


end timestep


start timestep kper="2" kstp="4" mode="normal"

 UBDSV1 SAVING  STORAGE-AQUEOUS ON UNIT   1029 AT TIME STEP      4, STRESS PERIOD      2
 UBDSV1 SAVING     FLOW-JA-FACE ON UNIT   1029 AT TIME STEP      4, STRESS PERIOD      2
 UBDSV06 SAVING  SOURCE-SINK MIX IN MODEL GWT_RIVERBASE    PACKAGE GWT_RIVERBASE   CONNECTED TO MODEL GWT_RIVERBASE    PACKAGE SSM              ON UNIT   1029 AT TIME STEP      4, STRESS PERIOD      2
 UBDSV06 SAVING              CNC IN MODEL GWT_RIVERBASE    PACKAGE GWT_RIVERBASE   CONNECTED TO MODEL GWT_RIVERBASE    PACKAGE CNC_0            ON UNIT   1029 AT TIME STEP      4, STRESS PERIOD      2
1
  CONCENTRATION IN LAYER   1 AT END OF TIME STEP   4 IN STRESS PERIOD    2
  ---------------------------------------------------------------------------

                1               2               3               4               5               6               7               8               9              10
 ................................................................................................................................................................
   1      1.00000         1.00000         1.00000         1.00000         1.00000         1.00000         1.00000         1.00000         1.00000         1.00000    
   2     0.999997         1.00000        0.999997         1.00000         1.00000         1.00000         1.00000         1.00000         1.00000         1.00000    
   3      1.00000        0.999997         1.00000         1.00000         1.00000         1.00000         1.00000         1.00000         1.00000         1.00000    
   4      1.00000         1.00000        0.999997         1.00000         1.00000         1.00000         1.00000         1.00000         1.00000         1.00000    
   5      1.00000         1.00000         1.00000        0.999997        0.999997         1.00000         1.00000         1.00000         1.00000         1.00000    
   6      1.00000         10.0000         1.00000        0.999997         1.00000        0.999997         1.00000         1.00000         1.00000         1.00000    
   7      1.00000         10.0000         1.00000         1.00000         1.00000         1.00000        0.999997         1.00000         1.00000         1.00000    
   8      1.00000         1.00000         1.00000         1.00000         1.00000         1.00000         1.00000        0.999996        0.999996         1.00000    
   9      1.00000         1.00000         1.00000         1.00000         1.00000         1.00000         1.00000        0.999996         1.00000         1.00000    
  10      1.00000         1.00000         1.00000         1.00000         1.00000         1.00000         1.00000         1.00000         1.00000         1.00000    
  11      1.00000         1.00000         1.00000         1.00000         1.00000         1.00000         1.00000         1.00000         1.00000         1.00000    
  12      1.00000         1.00000         1.00000         1.00000         1.00000         1.00000         1.00000         1.00000         1.00000         1.00000    
  13      1.00000         1.00000         1.00000         1.00000         1.00000         1.00000         1.00000         1.00000         1.00000         1.00000    
  14      1.00000         1.00000         1.00000         1.00000         1.00000         1.00000         1.00000         1.00000         1.00000         1.00000    
  15      1.00000         1.00000         1.00000         1.00000         1.00000         1.00000         1.00000         1.00000         1.00000         1.00000    
1
  CONCENTRATION IN LAYER   2 AT END OF TIME STEP   4 IN STRESS PERIOD    2
  ---------------------------------------------------------------------------

                1               2               3               4               5               6               7               8               9              10
 ................................................................................................................................................................
   1      1.00000         1.00000         1.00000         1.00000         1.00000         1.00000         1.00000         1.00000         1.00000         1.00000    
   2      1.00000         1.00000         1.00000         1.00000         1.00000         1.00000         1.00000         1.00000         1.00000         1.00000    
   3      1.00000         1.00000         1.00000         1.00000         1.00000         1.00000         1.00000         1.00000         1.00000         1.00000    
   4      1.00000         1.00000         1.00000         1.00000         1.00000         1.00000         1.00000         1.00000         1.00000         1.00000    
   5      1.00000         1.00000         1.00000         1.00000         1.00000         1.00000         1.00000         1.00000         1.00000         1.00000    
   6      1.00000         1.00000         1.00000         1.00000         1.00000         1.00000         1.00000         1.00000         1.00000         1.00000    
   7      1.00000         1.00000         1.00000         1.00000         1.00000         1.00000         1.00000         1.00000         1.00000         1.00000    
   8      1.00000         1.00000         1.00000         1.00000         1.00000         1.00000         1.00000         1.00000         1.00000         1.00000    
   9      1.00000         1.00000         1.00000         1.00000         1.00000         1.00000         1.00000         1.00000         1.00000         1.00000    
  10      1.00000         1.00000         1.00000         1.00000         1.00000         1.00000         1.00000         1.00000         1.00000         1.00000    
  11      1.00000         1.00000         1.00000         1.00000         1.00000         1.00000         1.00000         1.00000         1.00000         1.00000    
  12      1.00000         1.00000         1.00000         1.00000         1.00000         1.00000         1.00000         1.00000         1.00000         1.00000    
  13      1.00000         1.00000         1.00000         1.00000         1.00000         1.00000         1.00000         1.00000         1.00000         1.00000    
  14      1.00000         1.00000         1.00000         1.00000         1.00000         1.00000         1.00000         1.00000         1.00000         1.00000    
  15      1.00000         1.00000         1.00000         1.00000         1.00000         1.00000         1.00000         1.00000         1.00000         1.00000    
1
  CONCENTRATION IN LAYER   3 AT END OF TIME STEP   4 IN STRESS PERIOD    2
  ---------------------------------------------------------------------------

                1               2               3               4               5               6               7               8               9              10
 ................................................................................................................................................................
   1      1.00000         1.00000         1.00000         1.00000         1.00000         1.00000         1.00000         1.00000         1.00000         1.00000    
   2      1.00000         1.00000         1.00000         1.00000         1.00000         1.00000         1.00000         1.00000         1.00000         1.00000    
   3      1.00000         1.00000         1.00000         1.00000         1.00000         1.00000         1.00000         1.00000         1.00000         1.00000    
   4      1.00000         1.00000         1.00000         1.00000         1.00000         1.00000         1.00000         1.00000         1.00000         1.00000    
   5      1.00000         1.00000         1.00000         1.00000         1.00000         1.00000         1.00000         1.00000         1.00000         1.00000    
   6      1.00000         1.00000         1.00000         1.00000         1.00000         1.00000         1.00000         1.00000         1.00000         1.00000    
   7      1.00000         1.00000         1.00000         1.00000         1.00000         1.00000         1.00000         1.00000         1.00000         1.00000    
   8      1.00000         1.00000         1.00000         1.00000         1.00000         1.00000         1.00000         1.00000         1.00000         1.00000    
   9      1.00000         1.00000         1.00000         1.00000         1.00000         1.00000         1.00000         1.00000         1.00000         1.00000    
  10      1.00000         1.00000         1.00000         1.00000         1.00000         1.00000         1.00000         1.00000         1.00000         1.00000    
  11      1.00000         1.00000         1.00000         1.00000         1.00000         1.00000         1.00000         1.00000         1.00000         1.00000    
  12      1.00000         1.00000         1.00000         1.00000         1.00000         1.00000         1.00000         1.00000         1.00000         1.00000    
  13      1.00000         1.00000         1.00000         1.00000         1.00000         1.00000         1.00000         1.00000         1.00000         1.00000    
  14      1.00000         1.00000         1.00000         1.00000         1.00000         1.00000         1.00000         1.00000         1.00000         1.00000    
  15      1.00000         1.00000         1.00000         1.00000         1.00000         1.00000         1.00000         1.00000         1.00000         1.00000    

 CONCENTRATION WILL BE SAVED ON UNIT 1030 AT END OF TIME STEP    4, STRESS PERIOD    2


  MASS BUDGET FOR ENTIRE MODEL AT END OF TIME STEP    4, STRESS PERIOD   2
  ---------------------------------------------------------------------------------------------------

     CUMULATIVE MASS      M       RATES FOR THIS TIME STEP      M/T          PACKAGE NAME    
     ------------------                 ------------------------                     ----------------

           IN:                                      IN:
           ---                                      ---
     STORAGE-AQUEOUS =           2.7337       STORAGE-AQUEOUS =           2.0475     MST                              
                 RIV =           0.0000                   RIV =           0.0000     SSM_RIV-1                        
                 CHD =           0.0000                   CHD =           0.0000     SSM_CHD-1                        
                 CNC =           1.1440                   CNC =           0.8524     CNC_0                            

            TOTAL IN =           3.8776              TOTAL IN =           2.8999

          OUT:                                     OUT:
          ----                                     ----
     STORAGE-AQUEOUS =           1.2065       STORAGE-AQUEOUS =           0.8965     MST                              
                 RIV =           0.0000                   RIV =           0.0000     SSM_RIV-1                        
                 CHD =           2.5679                   CHD =           1.9259     SSM_CHD-1                        
                 CNC =           0.1033                   CNC =       7.7439E-02     CNC_0                            

           TOTAL OUT =           3.8776             TOTAL OUT =           2.8999

            IN - OUT =      -3.2218E-10              IN - OUT =       9.3053E-10

 PERCENT DISCREPANCY =          -0.00     PERCENT DISCREPANCY =           0.00




         TIME SUMMARY AT END OF TIME STEP    4 IN STRESS PERIOD    2
                    SECONDS     MINUTES      HOURS       DAYS        YEARS
                    -----------------------------------------------------------
   TIME STEP LENGTH  7200.0      120.00      2.0000     8.33333E-02 2.28154E-04
 STRESS PERIOD TIME  28800.      480.00      8.0000     0.33333     9.12617E-04
         TOTAL TIME 1.15200E+05  1920.0      32.000      1.3333     3.65047E-03


end timestep


start timestep kper="2" kstp="5" mode="normal"

 UBDSV1 SAVING  STORAGE-AQUEOUS ON UNIT   1029 AT TIME STEP      5, STRESS PERIOD      2
 UBDSV1 SAVING     FLOW-JA-FACE ON UNIT   1029 AT TIME STEP      5, STRESS PERIOD      2
 UBDSV06 SAVING  SOURCE-SINK MIX IN MODEL GWT_RIVERBASE    PACKAGE GWT_RIVERBASE   CONNECTED TO MODEL GWT_RIVERBASE    PACKAGE SSM              ON UNIT   1029 AT TIME STEP      5, STRESS PERIOD      2
 UBDSV06 SAVING              CNC IN MODEL GWT_RIVERBASE    PACKAGE GWT_RIVERBASE   CONNECTED TO MODEL GWT_RIVERBASE    PACKAGE CNC_0            ON UNIT   1029 AT TIME STEP      5, STRESS PERIOD      2
1
  CONCENTRATION IN LAYER   1 AT END OF TIME STEP   5 IN STRESS PERIOD    2
  ---------------------------------------------------------------------------

                1               2               3               4               5               6               7               8               9              10
 ................................................................................................................................................................
   1      1.00000         1.00000         1.00000         1.00000         1.00000         1.00000         1.00000         1.00000         1.00000         1.00000    
   2     0.999997         1.00000        0.999997         1.00000         1.00000         1.00000         1.00000         1.00000         1.00000         1.00000    
   3      1.00000        0.999997         1.00000         1.00000         1.00000         1.00000         1.00000         1.00000         1.00000         1.00000    
   4      1.00000         1.00000        0.999997         1.00000         1.00000         1.00000         1.00000         1.00000         1.00000         1.00000    
   5      1.00000         1.00000         1.00000        0.999997        0.999997         1.00000         1.00000         1.00000         1.00000         1.00000    
   6      1.00000         10.0000         1.00000        0.999997         1.00000        0.999996         1.00000         1.00000         1.00000         1.00000    
   7      1.00000         10.0000         1.00000         1.00000         1.00000         1.00000        0.999996         1.00000         1.00000         1.00000    
   8      1.00000         1.00000         1.00000         1.00000         1.00000         1.00000         1.00000        0.999996        0.999996         1.00000    
   9      1.00000         1.00000         1.00000         1.00000         1.00000         1.00000         1.00000        0.999996         1.00000         1.00000    
  10      1.00000         1.00000         1.00000         1.00000         1.00000         1.00000         1.00000         1.00000         1.00000         1.00000    
  11      1.00000         1.00000         1.00000         1.00000         1.00000         1.00000         1.00000         1.00000         1.00000         1.00000    
  12      1.00000         1.00000         1.00000         1.00000         1.00000         1.00000         1.00000         1.00000         1.00000         1.00000    
  13      1.00000         1.00000         1.00000         1.00000         1.00000         1.00000         1.00000         1.00000         1.00000         1.00000    
  14      1.00000         1.00000         1.00000         1.00000         1.00000         1.00000         1.00000         1.00000         1.00000         1.00000    
  15      1.00000         1.00000         1.00000         1.00000         1.00000         1.00000         1.00000         1.00000         1.00000         1.00000    
1
  CONCENTRATION IN LAYER   2 AT END OF TIME STEP   5 IN STRESS PERIOD    2
  ---------------------------------------------------------------------------

                1               2               3               4               5               6               7               8               9              10
 ................................................................................................................................................................
   1      1.00000         1.00000         1.00000         1.00000         1.00000         1.00000         1.00000         1.00000         1.00000         1.00000    
   2      1.00000         1.00000         1.00000         1.00000         1.00000         1.00000         1.00000         1.00000         1.00000         1.00000    
   3      1.00000         1.00000         1.00000         1.00000         1.00000         1.00000         1.00000         1.00000         1.00000         1.00000    
   4      1.00000         1.00000         1.00000         1.00000         1.00000         1.00000         1.00000         1.00000         1.00000         1.00000    
   5      1.00000         1.00000         1.00000         1.00000         1.00000         1.00000         1.00000         1.00000         1.00000         1.00000    
   6      1.00000         1.00000         1.00000         1.00000         1.00000         1.00000         1.00000         1.00000         1.00000         1.00000    
   7      1.00000         1.00000         1.00000         1.00000         1.00000         1.00000         1.00000         1.00000         1.00000         1.00000    
   8      1.00000         1.00000         1.00000         1.00000         1.00000         1.00000         1.00000         1.00000         1.00000         1.00000    
   9      1.00000         1.00000         1.00000         1.00000         1.00000         1.00000         1.00000         1.00000         1.00000         1.00000    
  10      1.00000         1.00000         1.00000         1.00000         1.00000         1.00000         1.00000         1.00000         1.00000         1.00000    
  11      1.00000         1.00000         1.00000         1.00000         1.00000         1.00000         1.00000         1.00000         1.00000         1.00000    
  12      1.00000         1.00000         1.00000         1.00000         1.00000         1.00000         1.00000         1.00000         1.00000         1.00000    
  13      1.00000         1.00000         1.00000         1.00000         1.00000         1.00000         1.00000         1.00000         1.00000         1.00000    
  14      1.00000         1.00000         1.00000         1.00000         1.00000         1.00000         1.00000         1.00000         1.00000         1.00000    
  15      1.00000         1.00000         1.00000         1.00000         1.00000         1.00000         1.00000         1.00000         1.00000         1.00000    
1
  CONCENTRATION IN LAYER   3 AT END OF TIME STEP   5 IN STRESS PERIOD    2
  ---------------------------------------------------------------------------

                1               2               3               4               5               6               7               8               9              10
 ................................................................................................................................................................
   1      1.00000         1.00000         1.00000         1.00000         1.00000         1.00000         1.00000         1.00000         1.00000         1.00000    
   2      1.00000         1.00000         1.00000         1.00000         1.00000         1.00000         1.00000         1.00000         1.00000         1.00000    
   3      1.00000         1.00000         1.00000         1.00000         1.00000         1.00000         1.00000         1.00000         1.00000         1.00000    
   4      1.00000         1.00000         1.00000         1.00000         1.00000         1.00000         1.00000         1.00000         1.00000         1.00000    
   5      1.00000         1.00000         1.00000         1.00000         1.00000         1.00000         1.00000         1.00000         1.00000         1.00000    
   6      1.00000         1.00000         1.00000         1.00000         1.00000         1.00000         1.00000         1.00000         1.00000         1.00000    
   7      1.00000         1.00000         1.00000         1.00000         1.00000         1.00000         1.00000         1.00000         1.00000         1.00000    
   8      1.00000         1.00000         1.00000         1.00000         1.00000         1.00000         1.00000         1.00000         1.00000         1.00000    
   9      1.00000         1.00000         1.00000         1.00000         1.00000         1.00000         1.00000         1.00000         1.00000         1.00000    
  10      1.00000         1.00000         1.00000         1.00000         1.00000         1.00000         1.00000         1.00000         1.00000         1.00000    
  11      1.00000         1.00000         1.00000         1.00000         1.00000         1.00000         1.00000         1.00000         1.00000         1.00000    
  12      1.00000         1.00000         1.00000         1.00000         1.00000         1.00000         1.00000         1.00000         1.00000         1.00000    
  13      1.00000         1.00000         1.00000         1.00000         1.00000         1.00000         1.00000         1.00000         1.00000         1.00000    
  14      1.00000         1.00000         1.00000         1.00000         1.00000         1.00000         1.00000         1.00000         1.00000         1.00000    
  15      1.00000         1.00000         1.00000         1.00000         1.00000         1.00000         1.00000         1.00000         1.00000         1.00000    

 CONCENTRATION WILL BE SAVED ON UNIT 1030 AT END OF TIME STEP    5, STRESS PERIOD    2


  MASS BUDGET FOR ENTIRE MODEL AT END OF TIME STEP    5, STRESS PERIOD   2
  ---------------------------------------------------------------------------------------------------

     CUMULATIVE MASS      M       RATES FOR THIS TIME STEP      M/T          PACKAGE NAME    
     ------------------                 ------------------------                     ----------------

           IN:                                      IN:
           ---                                      ---
     STORAGE-AQUEOUS =           2.9043       STORAGE-AQUEOUS =           2.0475     MST                              
                 RIV =           0.0000                   RIV =           0.0000     SSM_RIV-1                        
                 CHD =           0.0000                   CHD =           0.0000     SSM_CHD-1                        
                 CNC =           1.2150                   CNC =           0.8524     CNC_0                            

            TOTAL IN =           4.1193              TOTAL IN =           2.8999

          OUT:                                     OUT:
          ----                                     ----
     STORAGE-AQUEOUS =           1.2812       STORAGE-AQUEOUS =           0.8965     MST                              
                 RIV =           0.0000                   RIV =           0.0000     SSM_RIV-1                        
                 CHD =           2.7283                   CHD =           1.9259     SSM_CHD-1                        
                 CNC =           0.1097                   CNC =       7.7439E-02     CNC_0                            

           TOTAL OUT =           4.1193             TOTAL OUT =           2.8999

            IN - OUT =      -2.7967E-10              IN - OUT =       5.1002E-10

 PERCENT DISCREPANCY =          -0.00     PERCENT DISCREPANCY =           0.00




         TIME SUMMARY AT END OF TIME STEP    5 IN STRESS PERIOD    2
                    SECONDS     MINUTES      HOURS       DAYS        YEARS
                    -----------------------------------------------------------
   TIME STEP LENGTH  7200.0      120.00      2.0000     8.33333E-02 2.28154E-04
 STRESS PERIOD TIME  36000.      600.00      10.000     0.41667     1.14077E-03
         TOTAL TIME 1.22400E+05  2040.0      34.000      1.4167     3.87862E-03


end timestep


start timestep kper="2" kstp="6" mode="normal"

 UBDSV1 SAVING  STORAGE-AQUEOUS ON UNIT   1029 AT TIME STEP      6, STRESS PERIOD      2
 UBDSV1 SAVING     FLOW-JA-FACE ON UNIT   1029 AT TIME STEP      6, STRESS PERIOD      2
 UBDSV06 SAVING  SOURCE-SINK MIX IN MODEL GWT_RIVERBASE    PACKAGE GWT_RIVERBASE   CONNECTED TO MODEL GWT_RIVERBASE    PACKAGE SSM              ON UNIT   1029 AT TIME STEP      6, STRESS PERIOD      2
 UBDSV06 SAVING              CNC IN MODEL GWT_RIVERBASE    PACKAGE GWT_RIVERBASE   CONNECTED TO MODEL GWT_RIVERBASE    PACKAGE CNC_0            ON UNIT   1029 AT TIME STEP      6, STRESS PERIOD      2
1
  CONCENTRATION IN LAYER   1 AT END OF TIME STEP   6 IN STRESS PERIOD    2
  ---------------------------------------------------------------------------

                1               2               3               4               5               6               7               8               9              10
 ................................................................................................................................................................
   1      1.00000         1.00000         1.00000         1.00000         1.00000         1.00000         1.00000         1.00000         1.00000         1.00000    
   2     0.999997         1.00000        0.999997         1.00000         1.00000         1.00000         1.00000         1.00000         1.00000         1.00000    
   3      1.00000        0.999997         1.00000         1.00000         1.00000         1.00000         1.00000         1.00000         1.00000         1.00000    
   4      1.00000         1.00000        0.999997         1.00000         1.00000         1.00000         1.00000         1.00000         1.00000         1.00000    
   5      1.00000         1.00000         1.00000        0.999997        0.999996         1.00000         1.00000         1.00000         1.00000         1.00000    
   6      1.00001         10.0000         1.00000        0.999996         1.00000        0.999996         1.00000         1.00000         1.00000         1.00000    
   7      1.00000         10.0000         1.00000         1.00000         1.00000         1.00000        0.999996         1.00000         1.00000         1.00000    
   8      1.00000         1.00000         1.00000         1.00000         1.00000         1.00000         1.00000        0.999996        0.999996         1.00000    
   9      1.00000         1.00000         1.00000         1.00000         1.00000         1.00000         1.00000        0.999996         1.00000         1.00000    
  10      1.00000         1.00000         1.00000         1.00000         1.00000         1.00000         1.00000         1.00000         1.00000         1.00000    
  11      1.00000         1.00000         1.00000         1.00000         1.00000         1.00000         1.00000         1.00000         1.00000         1.00000    
  12      1.00000         1.00000         1.00000         1.00000         1.00000         1.00000         1.00000         1.00000         1.00000         1.00000    
  13      1.00000         1.00000         1.00000         1.00000         1.00000         1.00000         1.00000         1.00000         1.00000         1.00000    
  14      1.00000         1.00000         1.00000         1.00000         1.00000         1.00000         1.00000         1.00000         1.00000         1.00000    
  15      1.00000         1.00000         1.00000         1.00000         1.00000         1.00000         1.00000         1.00000         1.00000         1.00000    
1
  CONCENTRATION IN LAYER   2 AT END OF TIME STEP   6 IN STRESS PERIOD    2
  ---------------------------------------------------------------------------

                1               2               3               4               5               6               7               8               9              10
 ................................................................................................................................................................
   1      1.00000         1.00000         1.00000         1.00000         1.00000         1.00000         1.00000         1.00000         1.00000         1.00000    
   2      1.00000         1.00000         1.00000         1.00000         1.00000         1.00000         1.00000         1.00000         1.00000         1.00000    
   3      1.00000         1.00000         1.00000         1.00000         1.00000         1.00000         1.00000         1.00000         1.00000         1.00000    
   4      1.00000         1.00000         1.00000         1.00000         1.00000         1.00000         1.00000         1.00000         1.00000         1.00000    
   5      1.00000         1.00000         1.00000         1.00000         1.00000         1.00000         1.00000         1.00000         1.00000         1.00000    
   6      1.00000         1.00000         1.00000         1.00000         1.00000         1.00000         1.00000         1.00000         1.00000         1.00000    
   7      1.00000         1.00000         1.00000         1.00000         1.00000         1.00000         1.00000         1.00000         1.00000         1.00000    
   8      1.00000         1.00000         1.00000         1.00000         1.00000         1.00000         1.00000         1.00000         1.00000         1.00000    
   9      1.00000         1.00000         1.00000         1.00000         1.00000         1.00000         1.00000         1.00000         1.00000         1.00000    
  10      1.00000         1.00000         1.00000         1.00000         1.00000         1.00000         1.00000         1.00000         1.00000         1.00000    
  11      1.00000         1.00000         1.00000         1.00000         1.00000         1.00000         1.00000         1.00000         1.00000         1.00000    
  12      1.00000         1.00000         1.00000         1.00000         1.00000         1.00000         1.00000         1.00000         1.00000         1.00000    
  13      1.00000         1.00000         1.00000         1.00000         1.00000         1.00000         1.00000         1.00000         1.00000         1.00000    
  14      1.00000         1.00000         1.00000         1.00000         1.00000         1.00000         1.00000         1.00000         1.00000         1.00000    
  15      1.00000         1.00000         1.00000         1.00000         1.00000         1.00000         1.00000         1.00000         1.00000         1.00000    
1
  CONCENTRATION IN LAYER   3 AT END OF TIME STEP   6 IN STRESS PERIOD    2
  ---------------------------------------------------------------------------

                1               2               3               4               5               6               7               8               9              10
 ................................................................................................................................................................
   1      1.00000         1.00000         1.00000         1.00000         1.00000         1.00000         1.00000         1.00000         1.00000         1.00000    
   2      1.00000         1.00000         1.00000         1.00000         1.00000         1.00000         1.00000         1.00000         1.00000         1.00000    
   3      1.00000         1.00000         1.00000         1.00000         1.00000         1.00000         1.00000         1.00000         1.00000         1.00000    
   4      1.00000         1.00000         1.00000         1.00000         1.00000         1.00000         1.00000         1.00000         1.00000         1.00000    
   5      1.00000         1.00000         1.00000         1.00000         1.00000         1.00000         1.00000         1.00000         1.00000         1.00000    
   6      1.00000         1.00000         1.00000         1.00000         1.00000         1.00000         1.00000         1.00000         1.00000         1.00000    
   7      1.00000         1.00000         1.00000         1.00000         1.00000         1.00000         1.00000         1.00000         1.00000         1.00000    
   8      1.00000         1.00000         1.00000         1.00000         1.00000         1.00000         1.00000         1.00000         1.00000         1.00000    
   9      1.00000         1.00000         1.00000         1.00000         1.00000         1.00000         1.00000         1.00000         1.00000         1.00000    
  10      1.00000         1.00000         1.00000         1.00000         1.00000         1.00000         1.00000         1.00000         1.00000         1.00000    
  11      1.00000         1.00000         1.00000         1.00000         1.00000         1.00000         1.00000         1.00000         1.00000         1.00000    
  12      1.00000         1.00000         1.00000         1.00000         1.00000         1.00000         1.00000         1.00000         1.00000         1.00000    
  13      1.00000         1.00000         1.00000         1.00000         1.00000         1.00000         1.00000         1.00000         1.00000         1.00000    
  14      1.00000         1.00000         1.00000         1.00000         1.00000         1.00000         1.00000         1.00000         1.00000         1.00000    
  15      1.00000         1.00000         1.00000         1.00000         1.00000         1.00000         1.00000         1.00000         1.00000         1.00000    

 CONCENTRATION WILL BE SAVED ON UNIT 1030 AT END OF TIME STEP    6, STRESS PERIOD    2


  MASS BUDGET FOR ENTIRE MODEL AT END OF TIME STEP    6, STRESS PERIOD   2
  ---------------------------------------------------------------------------------------------------

     CUMULATIVE MASS      M       RATES FOR THIS TIME STEP      M/T          PACKAGE NAME    
     ------------------                 ------------------------                     ----------------

           IN:                                      IN:
           ---                                      ---
     STORAGE-AQUEOUS =           3.0749       STORAGE-AQUEOUS =           2.0475     MST                              
                 RIV =           0.0000                   RIV =           0.0000     SSM_RIV-1                        
                 CHD =           0.0000                   CHD =           0.0000     SSM_CHD-1                        
                 CNC =           1.2860                   CNC =           0.8524     CNC_0                            

            TOTAL IN =           4.3610              TOTAL IN =           2.8999

          OUT:                                     OUT:
          ----                                     ----
     STORAGE-AQUEOUS =           1.3560       STORAGE-AQUEOUS =           0.8965     MST                              
                 RIV =           0.0000                   RIV =           0.0000     SSM_RIV-1                        
                 CHD =           2.8888                   CHD =           1.9259     SSM_CHD-1                        
                 CNC =           0.1162                   CNC =       7.7439E-02     CNC_0                            

           TOTAL OUT =           4.3610             TOTAL OUT =           2.8999

            IN - OUT =      -2.6544E-10              IN - OUT =       1.7079E-10

 PERCENT DISCREPANCY =          -0.00     PERCENT DISCREPANCY =           0.00




         TIME SUMMARY AT END OF TIME STEP    6 IN STRESS PERIOD    2
                    SECONDS     MINUTES      HOURS       DAYS        YEARS
                    -----------------------------------------------------------
   TIME STEP LENGTH  7200.0      120.00      2.0000     8.33333E-02 2.28154E-04
 STRESS PERIOD TIME  43200.      720.00      12.000     0.50000     1.36893E-03
         TOTAL TIME 1.29600E+05  2160.0      36.000      1.5000     4.10678E-03


end timestep


start timestep kper="2" kstp="7" mode="normal"

 UBDSV1 SAVING  STORAGE-AQUEOUS ON UNIT   1029 AT TIME STEP      7, STRESS PERIOD      2
 UBDSV1 SAVING     FLOW-JA-FACE ON UNIT   1029 AT TIME STEP      7, STRESS PERIOD      2
 UBDSV06 SAVING  SOURCE-SINK MIX IN MODEL GWT_RIVERBASE    PACKAGE GWT_RIVERBASE   CONNECTED TO MODEL GWT_RIVERBASE    PACKAGE SSM              ON UNIT   1029 AT TIME STEP      7, STRESS PERIOD      2
 UBDSV06 SAVING              CNC IN MODEL GWT_RIVERBASE    PACKAGE GWT_RIVERBASE   CONNECTED TO MODEL GWT_RIVERBASE    PACKAGE CNC_0            ON UNIT   1029 AT TIME STEP      7, STRESS PERIOD      2
1
  CONCENTRATION IN LAYER   1 AT END OF TIME STEP   7 IN STRESS PERIOD    2
  ---------------------------------------------------------------------------

                1               2               3               4               5               6               7               8               9              10
 ................................................................................................................................................................
   1      1.00000         1.00000         1.00000         1.00000         1.00000         1.00000         1.00000         1.00000         1.00000         1.00000    
   2     0.999997         1.00000        0.999997         1.00000         1.00000         1.00000         1.00000         1.00000         1.00000         1.00000    
   3      1.00000        0.999997         1.00000         1.00000         1.00000         1.00000         1.00000         1.00000         1.00000         1.00000    
   4      1.00000         1.00000        0.999996         1.00000         1.00000         1.00000         1.00000         1.00000         1.00000         1.00000    
   5      1.00000         1.00000         1.00000        0.999996        0.999996         1.00000         1.00000         1.00000         1.00000         1.00000    
   6      1.00001         10.0000         1.00000        0.999996         1.00000        0.999996         1.00000         1.00000         1.00000         1.00000    
   7      1.00000         10.0000         1.00000         1.00000         1.00000         1.00000        0.999996         1.00000         1.00000         1.00000    
   8      1.00000         1.00000         1.00000         1.00000         1.00000         1.00000         1.00000        0.999996        0.999996         1.00000    
   9      1.00000         1.00000         1.00000         1.00000         1.00000         1.00000         1.00000        0.999996         1.00000         1.00000    
  10      1.00000         1.00000         1.00000         1.00000         1.00000         1.00000         1.00000         1.00000         1.00000         1.00000    
  11      1.00000         1.00000         1.00000         1.00000         1.00000         1.00000         1.00000         1.00000         1.00000         1.00000    
  12      1.00000         1.00000         1.00000         1.00000         1.00000         1.00000         1.00000         1.00000         1.00000         1.00000    
  13      1.00000         1.00000         1.00000         1.00000         1.00000         1.00000         1.00000         1.00000         1.00000         1.00000    
  14      1.00000         1.00000         1.00000         1.00000         1.00000         1.00000         1.00000         1.00000         1.00000         1.00000    
  15      1.00000         1.00000         1.00000         1.00000         1.00000         1.00000         1.00000         1.00000         1.00000         1.00000    
1
  CONCENTRATION IN LAYER   2 AT END OF TIME STEP   7 IN STRESS PERIOD    2
  ---------------------------------------------------------------------------

                1               2               3               4               5               6               7               8               9              10
 ................................................................................................................................................................
   1      1.00000         1.00000         1.00000         1.00000         1.00000         1.00000         1.00000         1.00000         1.00000         1.00000    
   2      1.00000         1.00000         1.00000         1.00000         1.00000         1.00000         1.00000         1.00000         1.00000         1.00000    
   3      1.00000         1.00000         1.00000         1.00000         1.00000         1.00000         1.00000         1.00000         1.00000         1.00000    
   4      1.00000         1.00000         1.00000         1.00000         1.00000         1.00000         1.00000         1.00000         1.00000         1.00000    
   5      1.00000         1.00000         1.00000         1.00000         1.00000         1.00000         1.00000         1.00000         1.00000         1.00000    
   6      1.00000         1.00000         1.00000         1.00000         1.00000         1.00000         1.00000         1.00000         1.00000         1.00000    
   7      1.00000         1.00000         1.00000         1.00000         1.00000         1.00000         1.00000         1.00000         1.00000         1.00000    
   8      1.00000         1.00000         1.00000         1.00000         1.00000         1.00000         1.00000         1.00000         1.00000         1.00000    
   9      1.00000         1.00000         1.00000         1.00000         1.00000         1.00000         1.00000         1.00000         1.00000         1.00000    
  10      1.00000         1.00000         1.00000         1.00000         1.00000         1.00000         1.00000         1.00000         1.00000         1.00000    
  11      1.00000         1.00000         1.00000         1.00000         1.00000         1.00000         1.00000         1.00000         1.00000         1.00000    
  12      1.00000         1.00000         1.00000         1.00000         1.00000         1.00000         1.00000         1.00000         1.00000         1.00000    
  13      1.00000         1.00000         1.00000         1.00000         1.00000         1.00000         1.00000         1.00000         1.00000         1.00000    
  14      1.00000         1.00000         1.00000         1.00000         1.00000         1.00000         1.00000         1.00000         1.00000         1.00000    
  15      1.00000         1.00000         1.00000         1.00000         1.00000         1.00000         1.00000         1.00000         1.00000         1.00000    
1
  CONCENTRATION IN LAYER   3 AT END OF TIME STEP   7 IN STRESS PERIOD    2
  ---------------------------------------------------------------------------

                1               2               3               4               5               6               7               8               9              10
 ................................................................................................................................................................
   1      1.00000         1.00000         1.00000         1.00000         1.00000         1.00000         1.00000         1.00000         1.00000         1.00000    
   2      1.00000         1.00000         1.00000         1.00000         1.00000         1.00000         1.00000         1.00000         1.00000         1.00000    
   3      1.00000         1.00000         1.00000         1.00000         1.00000         1.00000         1.00000         1.00000         1.00000         1.00000    
   4      1.00000         1.00000         1.00000         1.00000         1.00000         1.00000         1.00000         1.00000         1.00000         1.00000    
   5      1.00000         1.00000         1.00000         1.00000         1.00000         1.00000         1.00000         1.00000         1.00000         1.00000    
   6      1.00000         1.00000         1.00000         1.00000         1.00000         1.00000         1.00000         1.00000         1.00000         1.00000    
   7      1.00000         1.00000         1.00000         1.00000         1.00000         1.00000         1.00000         1.00000         1.00000         1.00000    
   8      1.00000         1.00000         1.00000         1.00000         1.00000         1.00000         1.00000         1.00000         1.00000         1.00000    
   9      1.00000         1.00000         1.00000         1.00000         1.00000         1.00000         1.00000         1.00000         1.00000         1.00000    
  10      1.00000         1.00000         1.00000         1.00000         1.00000         1.00000         1.00000         1.00000         1.00000         1.00000    
  11      1.00000         1.00000         1.00000         1.00000         1.00000         1.00000         1.00000         1.00000         1.00000         1.00000    
  12      1.00000         1.00000         1.00000         1.00000         1.00000         1.00000         1.00000         1.00000         1.00000         1.00000    
  13      1.00000         1.00000         1.00000         1.00000         1.00000         1.00000         1.00000         1.00000         1.00000         1.00000    
  14      1.00000         1.00000         1.00000         1.00000         1.00000         1.00000         1.00000         1.00000         1.00000         1.00000    
  15      1.00000         1.00000         1.00000         1.00000         1.00000         1.00000         1.00000         1.00000         1.00000         1.00000    

 CONCENTRATION WILL BE SAVED ON UNIT 1030 AT END OF TIME STEP    7, STRESS PERIOD    2


  MASS BUDGET FOR ENTIRE MODEL AT END OF TIME STEP    7, STRESS PERIOD   2
  ---------------------------------------------------------------------------------------------------

     CUMULATIVE MASS      M       RATES FOR THIS TIME STEP      M/T          PACKAGE NAME    
     ------------------                 ------------------------                     ----------------

           IN:                                      IN:
           ---                                      ---
     STORAGE-AQUEOUS =           3.2456       STORAGE-AQUEOUS =           2.0475     MST                              
                 RIV =           0.0000                   RIV =           0.0000     SSM_RIV-1                        
                 CHD =           0.0000                   CHD =           0.0000     SSM_CHD-1                        
                 CNC =           1.3570                   CNC =           0.8524     CNC_0                            

            TOTAL IN =           4.6026              TOTAL IN =           2.8999

          OUT:                                     OUT:
          ----                                     ----
     STORAGE-AQUEOUS =           1.4307       STORAGE-AQUEOUS =           0.8965     MST                              
                 RIV =           0.0000                   RIV =           0.0000     SSM_RIV-1                        
                 CHD =           3.0493                   CHD =           1.9259     SSM_CHD-1                        
                 CNC =           0.1226                   CNC =       7.7439E-02     CNC_0                            

           TOTAL OUT =           4.6026             TOTAL OUT =           2.8999

            IN - OUT =      -3.0526E-10              IN - OUT =      -4.7778E-10

 PERCENT DISCREPANCY =          -0.00     PERCENT DISCREPANCY =          -0.00




         TIME SUMMARY AT END OF TIME STEP    7 IN STRESS PERIOD    2
                    SECONDS     MINUTES      HOURS       DAYS        YEARS
                    -----------------------------------------------------------
   TIME STEP LENGTH  7200.0      120.00      2.0000     8.33333E-02 2.28154E-04
 STRESS PERIOD TIME  50400.      840.00      14.000     0.58333     1.59708E-03
         TOTAL TIME 1.36800E+05  2280.0      38.000      1.5833     4.33493E-03


end timestep


start timestep kper="2" kstp="8" mode="normal"

 UBDSV1 SAVING  STORAGE-AQUEOUS ON UNIT   1029 AT TIME STEP      8, STRESS PERIOD      2
 UBDSV1 SAVING     FLOW-JA-FACE ON UNIT   1029 AT TIME STEP      8, STRESS PERIOD      2
 UBDSV06 SAVING  SOURCE-SINK MIX IN MODEL GWT_RIVERBASE    PACKAGE GWT_RIVERBASE   CONNECTED TO MODEL GWT_RIVERBASE    PACKAGE SSM              ON UNIT   1029 AT TIME STEP      8, STRESS PERIOD      2
 UBDSV06 SAVING              CNC IN MODEL GWT_RIVERBASE    PACKAGE GWT_RIVERBASE   CONNECTED TO MODEL GWT_RIVERBASE    PACKAGE CNC_0            ON UNIT   1029 AT TIME STEP      8, STRESS PERIOD      2
1
  CONCENTRATION IN LAYER   1 AT END OF TIME STEP   8 IN STRESS PERIOD    2
  ---------------------------------------------------------------------------

                1               2               3               4               5               6               7               8               9              10
 ................................................................................................................................................................
   1      1.00000         1.00000         1.00000         1.00000         1.00000         1.00000         1.00000         1.00000         1.00000         1.00000    
   2     0.999996         1.00000        0.999996         1.00000         1.00000         1.00000         1.00000         1.00000         1.00000         1.00000    
   3      1.00000        0.999996         1.00000         1.00000         1.00000         1.00000         1.00000         1.00000         1.00000         1.00000    
   4      1.00000         1.00000        0.999996         1.00000         1.00000         1.00000         1.00000         1.00000         1.00000         1.00000    
   5      1.00000         1.00000         1.00000        0.999996        0.999996         1.00000         1.00000         1.00000         1.00000         1.00000    
   6      1.00001         10.0000         1.00000        0.999996         1.00000        0.999996         1.00000         1.00000         1.00000         1.00000    
   7      1.00000         10.0000         1.00000         1.00000         1.00000         1.00000        0.999996         1.00000         1.00000         1.00000    
   8      1.00000         1.00000         1.00000         1.00000         1.00000         1.00000         1.00000        0.999996        0.999995         1.00000    
   9      1.00000         1.00000         1.00000         1.00000         1.00000         1.00000         1.00000        0.999996         1.00000         1.00000    
  10      1.00000         1.00000         1.00000         1.00000         1.00000         1.00000         1.00000         1.00000         1.00000         1.00000    
  11      1.00000         1.00000         1.00000         1.00000         1.00000         1.00000         1.00000         1.00000         1.00000         1.00000    
  12      1.00000         1.00000         1.00000         1.00000         1.00000         1.00000         1.00000         1.00000         1.00000         1.00000    
  13      1.00000         1.00000         1.00000         1.00000         1.00000         1.00000         1.00000         1.00000         1.00000         1.00000    
  14      1.00000         1.00000         1.00000         1.00000         1.00000         1.00000         1.00000         1.00000         1.00000         1.00000    
  15      1.00000         1.00000         1.00000         1.00000         1.00000         1.00000         1.00000         1.00000         1.00000         1.00000    
1
  CONCENTRATION IN LAYER   2 AT END OF TIME STEP   8 IN STRESS PERIOD    2
  ---------------------------------------------------------------------------

                1               2               3               4               5               6               7               8               9              10
 ................................................................................................................................................................
   1      1.00000         1.00000         1.00000         1.00000         1.00000         1.00000         1.00000         1.00000         1.00000         1.00000    
   2      1.00000         1.00000         1.00000         1.00000         1.00000         1.00000         1.00000         1.00000         1.00000         1.00000    
   3      1.00000         1.00000         1.00000         1.00000         1.00000         1.00000         1.00000         1.00000         1.00000         1.00000    
   4      1.00000         1.00000         1.00000         1.00000         1.00000         1.00000         1.00000         1.00000         1.00000         1.00000    
   5      1.00000         1.00000         1.00000         1.00000         1.00000         1.00000         1.00000         1.00000         1.00000         1.00000    
   6      1.00000         1.00000         1.00000         1.00000         1.00000         1.00000         1.00000         1.00000         1.00000         1.00000    
   7      1.00000         1.00000         1.00000         1.00000         1.00000         1.00000         1.00000         1.00000         1.00000         1.00000    
   8      1.00000         1.00000         1.00000         1.00000         1.00000         1.00000         1.00000         1.00000         1.00000         1.00000    
   9      1.00000         1.00000         1.00000         1.00000         1.00000         1.00000         1.00000         1.00000         1.00000         1.00000    
  10      1.00000         1.00000         1.00000         1.00000         1.00000         1.00000         1.00000         1.00000         1.00000         1.00000    
  11      1.00000         1.00000         1.00000         1.00000         1.00000         1.00000         1.00000         1.00000         1.00000         1.00000    
  12      1.00000         1.00000         1.00000         1.00000         1.00000         1.00000         1.00000         1.00000         1.00000         1.00000    
  13      1.00000         1.00000         1.00000         1.00000         1.00000         1.00000         1.00000         1.00000         1.00000         1.00000    
  14      1.00000         1.00000         1.00000         1.00000         1.00000         1.00000         1.00000         1.00000         1.00000         1.00000    
  15      1.00000         1.00000         1.00000         1.00000         1.00000         1.00000         1.00000         1.00000         1.00000         1.00000    
1
  CONCENTRATION IN LAYER   3 AT END OF TIME STEP   8 IN STRESS PERIOD    2
  ---------------------------------------------------------------------------

                1               2               3               4               5               6               7               8               9              10
 ................................................................................................................................................................
   1      1.00000         1.00000         1.00000         1.00000         1.00000         1.00000         1.00000         1.00000         1.00000         1.00000    
   2      1.00000         1.00000         1.00000         1.00000         1.00000         1.00000         1.00000         1.00000         1.00000         1.00000    
   3      1.00000         1.00000         1.00000         1.00000         1.00000         1.00000         1.00000         1.00000         1.00000         1.00000    
   4      1.00000         1.00000         1.00000         1.00000         1.00000         1.00000         1.00000         1.00000         1.00000         1.00000    
   5      1.00000         1.00000         1.00000         1.00000         1.00000         1.00000         1.00000         1.00000         1.00000         1.00000    
   6      1.00000         1.00000         1.00000         1.00000         1.00000         1.00000         1.00000         1.00000         1.00000         1.00000    
   7      1.00000         1.00000         1.00000         1.00000         1.00000         1.00000         1.00000         1.00000         1.00000         1.00000    
   8      1.00000         1.00000         1.00000         1.00000         1.00000         1.00000         1.00000         1.00000         1.00000         1.00000    
   9      1.00000         1.00000         1.00000         1.00000         1.00000         1.00000         1.00000         1.00000         1.00000         1.00000    
  10      1.00000         1.00000         1.00000         1.00000         1.00000         1.00000         1.00000         1.00000         1.00000         1.00000    
  11      1.00000         1.00000         1.00000         1.00000         1.00000         1.00000         1.00000         1.00000         1.00000         1.00000    
  12      1.00000         1.00000         1.00000         1.00000         1.00000         1.00000         1.00000         1.00000         1.00000         1.00000    
  13      1.00000         1.00000         1.00000         1.00000         1.00000         1.00000         1.00000         1.00000         1.00000         1.00000    
  14      1.00000         1.00000         1.00000         1.00000         1.00000         1.00000         1.00000         1.00000         1.00000         1.00000    
  15      1.00000         1.00000         1.00000         1.00000         1.00000         1.00000         1.00000         1.00000         1.00000         1.00000    

 CONCENTRATION WILL BE SAVED ON UNIT 1030 AT END OF TIME STEP    8, STRESS PERIOD    2


  MASS BUDGET FOR ENTIRE MODEL AT END OF TIME STEP    8, STRESS PERIOD   2
  ---------------------------------------------------------------------------------------------------

     CUMULATIVE MASS      M       RATES FOR THIS TIME STEP      M/T          PACKAGE NAME    
     ------------------                 ------------------------                     ----------------

           IN:                                      IN:
           ---                                      ---
     STORAGE-AQUEOUS =           3.4162       STORAGE-AQUEOUS =           2.0475     MST                              
                 RIV =           0.0000                   RIV =           0.0000     SSM_RIV-1                        
                 CHD =           0.0000                   CHD =           0.0000     SSM_CHD-1                        
                 CNC =           1.4281                   CNC =           0.8524     CNC_0                            

            TOTAL IN =           4.8443              TOTAL IN =           2.8999

          OUT:                                     OUT:
          ----                                     ----
     STORAGE-AQUEOUS =           1.5054       STORAGE-AQUEOUS =           0.8965     MST                              
                 RIV =           0.0000                   RIV =           0.0000     SSM_RIV-1                        
                 CHD =           3.2098                   CHD =           1.9259     SSM_CHD-1                        
                 CNC =           0.1291                   CNC =       7.7439E-02     CNC_0                            

           TOTAL OUT =           4.8443             TOTAL OUT =           2.8999

            IN - OUT =      -2.7156E-10              IN - OUT =       4.0442E-10

 PERCENT DISCREPANCY =          -0.00     PERCENT DISCREPANCY =           0.00




         TIME SUMMARY AT END OF TIME STEP    8 IN STRESS PERIOD    2
                    SECONDS     MINUTES      HOURS       DAYS        YEARS
                    -----------------------------------------------------------
   TIME STEP LENGTH  7200.0      120.00      2.0000     8.33333E-02 2.28154E-04
 STRESS PERIOD TIME  57600.      960.00      16.000     0.66667     1.82523E-03
         TOTAL TIME 1.44000E+05  2400.0      40.000      1.6667     4.56308E-03


end timestep


start timestep kper="2" kstp="9" mode="normal"

 UBDSV1 SAVING  STORAGE-AQUEOUS ON UNIT   1029 AT TIME STEP      9, STRESS PERIOD      2
 UBDSV1 SAVING     FLOW-JA-FACE ON UNIT   1029 AT TIME STEP      9, STRESS PERIOD      2
 UBDSV06 SAVING  SOURCE-SINK MIX IN MODEL GWT_RIVERBASE    PACKAGE GWT_RIVERBASE   CONNECTED TO MODEL GWT_RIVERBASE    PACKAGE SSM              ON UNIT   1029 AT TIME STEP      9, STRESS PERIOD      2
 UBDSV06 SAVING              CNC IN MODEL GWT_RIVERBASE    PACKAGE GWT_RIVERBASE   CONNECTED TO MODEL GWT_RIVERBASE    PACKAGE CNC_0            ON UNIT   1029 AT TIME STEP      9, STRESS PERIOD      2
1
  CONCENTRATION IN LAYER   1 AT END OF TIME STEP   9 IN STRESS PERIOD    2
  ---------------------------------------------------------------------------

                1               2               3               4               5               6               7               8               9              10
 ................................................................................................................................................................
   1      1.00000         1.00000         1.00000         1.00000         1.00000         1.00000         1.00000         1.00000         1.00000         1.00000    
   2     0.999996         1.00000        0.999996         1.00000         1.00000         1.00000         1.00000         1.00000         1.00000         1.00000    
   3      1.00000        0.999996         1.00000         1.00000         1.00000         1.00000         1.00000         1.00000         1.00000         1.00000    
   4      1.00000         1.00000        0.999996         1.00000         1.00000         1.00000         1.00000         1.00000         1.00000         1.00000    
   5      1.00000         1.00000         1.00000        0.999996        0.999996         1.00000         1.00000         1.00000         1.00000         1.00000    
   6      1.00001         10.0000         1.00000        0.999996         1.00000        0.999996         1.00000         1.00000         1.00000         1.00000    
   7      1.00000         10.0000         1.00000         1.00000         1.00000         1.00000        0.999995         1.00000         1.00000         1.00000    
   8      1.00000         1.00000         1.00000         1.00000         1.00000         1.00000         1.00000        0.999995        0.999995         1.00000    
   9      1.00000         1.00000         1.00000         1.00000         1.00000         1.00000         1.00000        0.999995         1.00000         1.00000    
  10      1.00000         1.00000         1.00000         1.00000         1.00000         1.00000         1.00000         1.00000         1.00000         1.00000    
  11      1.00000         1.00000         1.00000         1.00000         1.00000         1.00000         1.00000         1.00000         1.00000         1.00000    
  12      1.00000         1.00000         1.00000         1.00000         1.00000         1.00000         1.00000         1.00000         1.00000         1.00000    
  13      1.00000         1.00000         1.00000         1.00000         1.00000         1.00000         1.00000         1.00000         1.00000         1.00000    
  14      1.00000         1.00000         1.00000         1.00000         1.00000         1.00000         1.00000         1.00000         1.00000         1.00000    
  15      1.00000         1.00000         1.00000         1.00000         1.00000         1.00000         1.00000         1.00000         1.00000         1.00000    
1
  CONCENTRATION IN LAYER   2 AT END OF TIME STEP   9 IN STRESS PERIOD    2
  ---------------------------------------------------------------------------

                1               2               3               4               5               6               7               8               9              10
 ................................................................................................................................................................
   1      1.00000         1.00000         1.00000         1.00000         1.00000         1.00000         1.00000         1.00000         1.00000         1.00000    
   2      1.00000         1.00000         1.00000         1.00000         1.00000         1.00000         1.00000         1.00000         1.00000         1.00000    
   3      1.00000         1.00000         1.00000         1.00000         1.00000         1.00000         1.00000         1.00000         1.00000         1.00000    
   4      1.00000         1.00000         1.00000         1.00000         1.00000         1.00000         1.00000         1.00000         1.00000         1.00000    
   5      1.00000         1.00000         1.00000         1.00000         1.00000         1.00000         1.00000         1.00000         1.00000         1.00000    
   6      1.00000         1.00000         1.00000         1.00000         1.00000         1.00000         1.00000         1.00000         1.00000         1.00000    
   7      1.00000         1.00000         1.00000         1.00000         1.00000         1.00000         1.00000         1.00000         1.00000         1.00000    
   8      1.00000         1.00000         1.00000         1.00000         1.00000         1.00000         1.00000         1.00000         1.00000         1.00000    
   9      1.00000         1.00000         1.00000         1.00000         1.00000         1.00000         1.00000         1.00000         1.00000         1.00000    
  10      1.00000         1.00000         1.00000         1.00000         1.00000         1.00000         1.00000         1.00000         1.00000         1.00000    
  11      1.00000         1.00000         1.00000         1.00000         1.00000         1.00000         1.00000         1.00000         1.00000         1.00000    
  12      1.00000         1.00000         1.00000         1.00000         1.00000         1.00000         1.00000         1.00000         1.00000         1.00000    
  13      1.00000         1.00000         1.00000         1.00000         1.00000         1.00000         1.00000         1.00000         1.00000         1.00000    
  14      1.00000         1.00000         1.00000         1.00000         1.00000         1.00000         1.00000         1.00000         1.00000         1.00000    
  15      1.00000         1.00000         1.00000         1.00000         1.00000         1.00000         1.00000         1.00000         1.00000         1.00000    
1
  CONCENTRATION IN LAYER   3 AT END OF TIME STEP   9 IN STRESS PERIOD    2
  ---------------------------------------------------------------------------

                1               2               3               4               5               6               7               8               9              10
 ................................................................................................................................................................
   1      1.00000         1.00000         1.00000         1.00000         1.00000         1.00000         1.00000         1.00000         1.00000         1.00000    
   2      1.00000         1.00000         1.00000         1.00000         1.00000         1.00000         1.00000         1.00000         1.00000         1.00000    
   3      1.00000         1.00000         1.00000         1.00000         1.00000         1.00000         1.00000         1.00000         1.00000         1.00000    
   4      1.00000         1.00000         1.00000         1.00000         1.00000         1.00000         1.00000         1.00000         1.00000         1.00000    
   5      1.00000         1.00000         1.00000         1.00000         1.00000         1.00000         1.00000         1.00000         1.00000         1.00000    
   6      1.00000         1.00000         1.00000         1.00000         1.00000         1.00000         1.00000         1.00000         1.00000         1.00000    
   7      1.00000         1.00000         1.00000         1.00000         1.00000         1.00000         1.00000         1.00000         1.00000         1.00000    
   8      1.00000         1.00000         1.00000         1.00000         1.00000         1.00000         1.00000         1.00000         1.00000         1.00000    
   9      1.00000         1.00000         1.00000         1.00000         1.00000         1.00000         1.00000         1.00000         1.00000         1.00000    
  10      1.00000         1.00000         1.00000         1.00000         1.00000         1.00000         1.00000         1.00000         1.00000         1.00000    
  11      1.00000         1.00000         1.00000         1.00000         1.00000         1.00000         1.00000         1.00000         1.00000         1.00000    
  12      1.00000         1.00000         1.00000         1.00000         1.00000         1.00000         1.00000         1.00000         1.00000         1.00000    
  13      1.00000         1.00000         1.00000         1.00000         1.00000         1.00000         1.00000         1.00000         1.00000         1.00000    
  14      1.00000         1.00000         1.00000         1.00000         1.00000         1.00000         1.00000         1.00000         1.00000         1.00000    
  15      1.00000         1.00000         1.00000         1.00000         1.00000         1.00000         1.00000         1.00000         1.00000         1.00000    

 CONCENTRATION WILL BE SAVED ON UNIT 1030 AT END OF TIME STEP    9, STRESS PERIOD    2


  MASS BUDGET FOR ENTIRE MODEL AT END OF TIME STEP    9, STRESS PERIOD   2
  ---------------------------------------------------------------------------------------------------

     CUMULATIVE MASS      M       RATES FOR THIS TIME STEP      M/T          PACKAGE NAME    
     ------------------                 ------------------------                     ----------------

           IN:                                      IN:
           ---                                      ---
     STORAGE-AQUEOUS =           3.5868       STORAGE-AQUEOUS =           2.0475     MST                              
                 RIV =           0.0000                   RIV =           0.0000     SSM_RIV-1                        
                 CHD =           0.0000                   CHD =           0.0000     SSM_CHD-1                        
                 CNC =           1.4991                   CNC =           0.8524     CNC_0                            

            TOTAL IN =           5.0859              TOTAL IN =           2.8999

          OUT:                                     OUT:
          ----                                     ----
     STORAGE-AQUEOUS =           1.5801       STORAGE-AQUEOUS =           0.8965     MST                              
                 RIV =           0.0000                   RIV =           0.0000     SSM_RIV-1                        
                 CHD =           3.3703                   CHD =           1.9259     SSM_CHD-1                        
                 CNC =           0.1355                   CNC =       7.7438E-02     CNC_0                            

           TOTAL OUT =           5.0859             TOTAL OUT =           2.8999

            IN - OUT =      -2.6915E-10              IN - OUT =       2.8913E-11

 PERCENT DISCREPANCY =          -0.00     PERCENT DISCREPANCY =           0.00




         TIME SUMMARY AT END OF TIME STEP    9 IN STRESS PERIOD    2
                    SECONDS     MINUTES      HOURS       DAYS        YEARS
                    -----------------------------------------------------------
   TIME STEP LENGTH  7200.0      120.00      2.0000     8.33333E-02 2.28154E-04
 STRESS PERIOD TIME  64800.      1080.0      18.000     0.75000     2.05339E-03
         TOTAL TIME 1.51200E+05  2520.0      42.000      1.7500     4.79124E-03


end timestep


start timestep kper="2" kstp="10" mode="normal"

 UBDSV1 SAVING  STORAGE-AQUEOUS ON UNIT   1029 AT TIME STEP     10, STRESS PERIOD      2
 UBDSV1 SAVING     FLOW-JA-FACE ON UNIT   1029 AT TIME STEP     10, STRESS PERIOD      2
 UBDSV06 SAVING  SOURCE-SINK MIX IN MODEL GWT_RIVERBASE    PACKAGE GWT_RIVERBASE   CONNECTED TO MODEL GWT_RIVERBASE    PACKAGE SSM              ON UNIT   1029 AT TIME STEP     10, STRESS PERIOD      2
 UBDSV06 SAVING              CNC IN MODEL GWT_RIVERBASE    PACKAGE GWT_RIVERBASE   CONNECTED TO MODEL GWT_RIVERBASE    PACKAGE CNC_0            ON UNIT   1029 AT TIME STEP     10, STRESS PERIOD      2
1
  CONCENTRATION IN LAYER   1 AT END OF TIME STEP  10 IN STRESS PERIOD    2
  ---------------------------------------------------------------------------

                1               2               3               4               5               6               7               8               9              10
 ................................................................................................................................................................
   1      1.00000         1.00000         1.00000         1.00000         1.00000         1.00000         1.00000         1.00000         1.00000         1.00000    
   2     0.999996         1.00000        0.999996         1.00000         1.00000         1.00000         1.00000         1.00000         1.00000         1.00000    
   3      1.00000        0.999996         1.00000         1.00000         1.00000         1.00000         1.00000         1.00000         1.00000         1.00000    
   4      1.00000         1.00000        0.999996         1.00000         1.00000         1.00000         1.00000         1.00000         1.00000         1.00000    
   5      1.00000         1.00000         1.00000        0.999996        0.999996         1.00000         1.00000         1.00000         1.00000         1.00000    
   6      1.00001         10.0000         1.00000        0.999996         1.00000        0.999995         1.00000         1.00000         1.00000         1.00000    
   7      1.00000         10.0000         1.00000         1.00000         1.00000         1.00000        0.999995         1.00000         1.00000         1.00000    
   8      1.00000         1.00000         1.00000         1.00000         1.00000         1.00000         1.00000        0.999995        0.999995         1.00000    
   9      1.00000         1.00000         1.00000         1.00000         1.00000         1.00000         1.00000        0.999995         1.00000         1.00000    
  10      1.00000         1.00000         1.00000         1.00000         1.00000         1.00000         1.00000         1.00000         1.00000         1.00000    
  11      1.00000         1.00000         1.00000         1.00000         1.00000         1.00000         1.00000         1.00000         1.00000         1.00000    
  12      1.00000         1.00000         1.00000         1.00000         1.00000         1.00000         1.00000         1.00000         1.00000         1.00000    
  13      1.00000         1.00000         1.00000         1.00000         1.00000         1.00000         1.00000         1.00000         1.00000         1.00000    
  14      1.00000         1.00000         1.00000         1.00000         1.00000         1.00000         1.00000         1.00000         1.00000         1.00000    
  15      1.00000         1.00000         1.00000         1.00000         1.00000         1.00000         1.00000         1.00000         1.00000         1.00000    
1
  CONCENTRATION IN LAYER   2 AT END OF TIME STEP  10 IN STRESS PERIOD    2
  ---------------------------------------------------------------------------

                1               2               3               4               5               6               7               8               9              10
 ................................................................................................................................................................
   1      1.00000         1.00000         1.00000         1.00000         1.00000         1.00000         1.00000         1.00000         1.00000         1.00000    
   2      1.00000         1.00000         1.00000         1.00000         1.00000         1.00000         1.00000         1.00000         1.00000         1.00000    
   3      1.00000         1.00000         1.00000         1.00000         1.00000         1.00000         1.00000         1.00000         1.00000         1.00000    
   4      1.00000         1.00000         1.00000         1.00000         1.00000         1.00000         1.00000         1.00000         1.00000         1.00000    
   5      1.00000         1.00000         1.00000         1.00000         1.00000         1.00000         1.00000         1.00000         1.00000         1.00000    
   6      1.00000         1.00000         1.00000         1.00000         1.00000         1.00000         1.00000         1.00000         1.00000         1.00000    
   7      1.00000         1.00000         1.00000         1.00000         1.00000         1.00000         1.00000         1.00000         1.00000         1.00000    
   8      1.00000         1.00000         1.00000         1.00000         1.00000         1.00000         1.00000         1.00000         1.00000         1.00000    
   9      1.00000         1.00000         1.00000         1.00000         1.00000         1.00000         1.00000         1.00000         1.00000         1.00000    
  10      1.00000         1.00000         1.00000         1.00000         1.00000         1.00000         1.00000         1.00000         1.00000         1.00000    
  11      1.00000         1.00000         1.00000         1.00000         1.00000         1.00000         1.00000         1.00000         1.00000         1.00000    
  12      1.00000         1.00000         1.00000         1.00000         1.00000         1.00000         1.00000         1.00000         1.00000         1.00000    
  13      1.00000         1.00000         1.00000         1.00000         1.00000         1.00000         1.00000         1.00000         1.00000         1.00000    
  14      1.00000         1.00000         1.00000         1.00000         1.00000         1.00000         1.00000         1.00000         1.00000         1.00000    
  15      1.00000         1.00000         1.00000         1.00000         1.00000         1.00000         1.00000         1.00000         1.00000         1.00000    
1
  CONCENTRATION IN LAYER   3 AT END OF TIME STEP  10 IN STRESS PERIOD    2
  ---------------------------------------------------------------------------

                1               2               3               4               5               6               7               8               9              10
 ................................................................................................................................................................
   1      1.00000         1.00000         1.00000         1.00000         1.00000         1.00000         1.00000         1.00000         1.00000         1.00000    
   2      1.00000         1.00000         1.00000         1.00000         1.00000         1.00000         1.00000         1.00000         1.00000         1.00000    
   3      1.00000         1.00000         1.00000         1.00000         1.00000         1.00000         1.00000         1.00000         1.00000         1.00000    
   4      1.00000         1.00000         1.00000         1.00000         1.00000         1.00000         1.00000         1.00000         1.00000         1.00000    
   5      1.00000         1.00000         1.00000         1.00000         1.00000         1.00000         1.00000         1.00000         1.00000         1.00000    
   6      1.00000         1.00000         1.00000         1.00000         1.00000         1.00000         1.00000         1.00000         1.00000         1.00000    
   7      1.00000         1.00000         1.00000         1.00000         1.00000         1.00000         1.00000         1.00000         1.00000         1.00000    
   8      1.00000         1.00000         1.00000         1.00000         1.00000         1.00000         1.00000         1.00000         1.00000         1.00000    
   9      1.00000         1.00000         1.00000         1.00000         1.00000         1.00000         1.00000         1.00000         1.00000         1.00000    
  10      1.00000         1.00000         1.00000         1.00000         1.00000         1.00000         1.00000         1.00000         1.00000         1.00000    
  11      1.00000         1.00000         1.00000         1.00000         1.00000         1.00000         1.00000         1.00000         1.00000         1.00000    
  12      1.00000         1.00000         1.00000         1.00000         1.00000         1.00000         1.00000         1.00000         1.00000         1.00000    
  13      1.00000         1.00000         1.00000         1.00000         1.00000         1.00000         1.00000         1.00000         1.00000         1.00000    
  14      1.00000         1.00000         1.00000         1.00000         1.00000         1.00000         1.00000         1.00000         1.00000         1.00000    
  15      1.00000         1.00000         1.00000         1.00000         1.00000         1.00000         1.00000         1.00000         1.00000         1.00000    

 CONCENTRATION WILL BE SAVED ON UNIT 1030 AT END OF TIME STEP   10, STRESS PERIOD    2


  MASS BUDGET FOR ENTIRE MODEL AT END OF TIME STEP   10, STRESS PERIOD   2
  ---------------------------------------------------------------------------------------------------

     CUMULATIVE MASS      M       RATES FOR THIS TIME STEP      M/T          PACKAGE NAME    
     ------------------                 ------------------------                     ----------------

           IN:                                      IN:
           ---                                      ---
     STORAGE-AQUEOUS =           3.7574       STORAGE-AQUEOUS =           2.0475     MST                              
                 RIV =           0.0000                   RIV =           0.0000     SSM_RIV-1                        
                 CHD =           0.0000                   CHD =           0.0000     SSM_CHD-1                        
                 CNC =           1.5701                   CNC =           0.8524     CNC_0                            

            TOTAL IN =           5.3276              TOTAL IN =           2.8999

          OUT:                                     OUT:
          ----                                     ----
     STORAGE-AQUEOUS =           1.6548       STORAGE-AQUEOUS =           0.8965     MST                              
                 RIV =           0.0000                   RIV =           0.0000     SSM_RIV-1                        
                 CHD =           3.5308                   CHD =           1.9259     SSM_CHD-1                        
                 CNC =           0.1420                   CNC =       7.7438E-02     CNC_0                            

           TOTAL OUT =           5.3276             TOTAL OUT =           2.8999

            IN - OUT =      -4.3489E-10              IN - OUT =      -1.9890E-09

 PERCENT DISCREPANCY =          -0.00     PERCENT DISCREPANCY =          -0.00




         TIME SUMMARY AT END OF TIME STEP   10 IN STRESS PERIOD    2
                    SECONDS     MINUTES      HOURS       DAYS        YEARS
                    -----------------------------------------------------------
   TIME STEP LENGTH  7200.0      120.00      2.0000     8.33333E-02 2.28154E-04
 STRESS PERIOD TIME  72000.      1200.0      20.000     0.83333     2.28154E-03
         TOTAL TIME 1.58400E+05  2640.0      44.000      1.8333     5.01939E-03


end timestep


start timestep kper="2" kstp="11" mode="normal"

 UBDSV1 SAVING  STORAGE-AQUEOUS ON UNIT   1029 AT TIME STEP     11, STRESS PERIOD      2
 UBDSV1 SAVING     FLOW-JA-FACE ON UNIT   1029 AT TIME STEP     11, STRESS PERIOD      2
 UBDSV06 SAVING  SOURCE-SINK MIX IN MODEL GWT_RIVERBASE    PACKAGE GWT_RIVERBASE   CONNECTED TO MODEL GWT_RIVERBASE    PACKAGE SSM              ON UNIT   1029 AT TIME STEP     11, STRESS PERIOD      2
 UBDSV06 SAVING              CNC IN MODEL GWT_RIVERBASE    PACKAGE GWT_RIVERBASE   CONNECTED TO MODEL GWT_RIVERBASE    PACKAGE CNC_0            ON UNIT   1029 AT TIME STEP     11, STRESS PERIOD      2
1
  CONCENTRATION IN LAYER   1 AT END OF TIME STEP  11 IN STRESS PERIOD    2
  ---------------------------------------------------------------------------

                1               2               3               4               5               6               7               8               9              10
 ................................................................................................................................................................
   1      1.00000         1.00000         1.00000         1.00000         1.00000         1.00000         1.00000         1.00000         1.00000         1.00000    
   2     0.999996         1.00000        0.999996         1.00000         1.00000         1.00000         1.00000         1.00000         1.00000         1.00000    
   3      1.00000        0.999996         1.00000         1.00000         1.00000         1.00000         1.00000         1.00000         1.00000         1.00000    
   4      1.00000         1.00000        0.999996         1.00000         1.00000         1.00000         1.00000         1.00000         1.00000         1.00000    
   5      1.00000         1.00001         1.00000        0.999996        0.999995         1.00000         1.00000         1.00000         1.00000         1.00000    
   6      1.00001         10.0000         1.00000        0.999995         1.00000        0.999995         1.00000         1.00000         1.00000         1.00000    
   7      1.00000         10.0000         1.00000         1.00000         1.00000         1.00000        0.999995         1.00000         1.00000         1.00000    
   8      1.00000         1.00000         1.00000         1.00000         1.00000         1.00000         1.00000        0.999995        0.999995         1.00000    
   9      1.00000         1.00000         1.00000         1.00000         1.00000         1.00000         1.00000        0.999995         1.00000         1.00000    
  10      1.00000         1.00000         1.00000         1.00000         1.00000         1.00000         1.00000         1.00000         1.00000         1.00000    
  11      1.00000         1.00000         1.00000         1.00000         1.00000         1.00000         1.00000         1.00000         1.00000         1.00000    
  12      1.00000         1.00000         1.00000         1.00000         1.00000         1.00000         1.00000         1.00000         1.00000         1.00000    
  13      1.00000         1.00000         1.00000         1.00000         1.00000         1.00000         1.00000         1.00000         1.00000         1.00000    
  14      1.00000         1.00000         1.00000         1.00000         1.00000         1.00000         1.00000         1.00000         1.00000         1.00000    
  15      1.00000         1.00000         1.00000         1.00000         1.00000         1.00000         1.00000         1.00000         1.00000         1.00000    
1
  CONCENTRATION IN LAYER   2 AT END OF TIME STEP  11 IN STRESS PERIOD    2
  ---------------------------------------------------------------------------

                1               2               3               4               5               6               7               8               9              10
 ................................................................................................................................................................
   1      1.00000         1.00000         1.00000         1.00000         1.00000         1.00000         1.00000         1.00000         1.00000         1.00000    
   2      1.00000         1.00000         1.00000         1.00000         1.00000         1.00000         1.00000         1.00000         1.00000         1.00000    
   3      1.00000         1.00000         1.00000         1.00000         1.00000         1.00000         1.00000         1.00000         1.00000         1.00000    
   4      1.00000         1.00000         1.00000         1.00000         1.00000         1.00000         1.00000         1.00000         1.00000         1.00000    
   5      1.00000         1.00000         1.00000         1.00000         1.00000         1.00000         1.00000         1.00000         1.00000         1.00000    
   6      1.00000         1.00000         1.00000         1.00000         1.00000         1.00000         1.00000         1.00000         1.00000         1.00000    
   7      1.00000         1.00000         1.00000         1.00000         1.00000         1.00000         1.00000         1.00000         1.00000         1.00000    
   8      1.00000         1.00000         1.00000         1.00000         1.00000         1.00000         1.00000         1.00000         1.00000         1.00000    
   9      1.00000         1.00000         1.00000         1.00000         1.00000         1.00000         1.00000         1.00000         1.00000         1.00000    
  10      1.00000         1.00000         1.00000         1.00000         1.00000         1.00000         1.00000         1.00000         1.00000         1.00000    
  11      1.00000         1.00000         1.00000         1.00000         1.00000         1.00000         1.00000         1.00000         1.00000         1.00000    
  12      1.00000         1.00000         1.00000         1.00000         1.00000         1.00000         1.00000         1.00000         1.00000         1.00000    
  13      1.00000         1.00000         1.00000         1.00000         1.00000         1.00000         1.00000         1.00000         1.00000         1.00000    
  14      1.00000         1.00000         1.00000         1.00000         1.00000         1.00000         1.00000         1.00000         1.00000         1.00000    
  15      1.00000         1.00000         1.00000         1.00000         1.00000         1.00000         1.00000         1.00000         1.00000         1.00000    
1
  CONCENTRATION IN LAYER   3 AT END OF TIME STEP  11 IN STRESS PERIOD    2
  ---------------------------------------------------------------------------

                1               2               3               4               5               6               7               8               9              10
 ................................................................................................................................................................
   1      1.00000         1.00000         1.00000         1.00000         1.00000         1.00000         1.00000         1.00000         1.00000         1.00000    
   2      1.00000         1.00000         1.00000         1.00000         1.00000         1.00000         1.00000         1.00000         1.00000         1.00000    
   3      1.00000         1.00000         1.00000         1.00000         1.00000         1.00000         1.00000         1.00000         1.00000         1.00000    
   4      1.00000         1.00000         1.00000         1.00000         1.00000         1.00000         1.00000         1.00000         1.00000         1.00000    
   5      1.00000         1.00000         1.00000         1.00000         1.00000         1.00000         1.00000         1.00000         1.00000         1.00000    
   6      1.00000         1.00000         1.00000         1.00000         1.00000         1.00000         1.00000         1.00000         1.00000         1.00000    
   7      1.00000         1.00000         1.00000         1.00000         1.00000         1.00000         1.00000         1.00000         1.00000         1.00000    
   8      1.00000         1.00000         1.00000         1.00000         1.00000         1.00000         1.00000         1.00000         1.00000         1.00000    
   9      1.00000         1.00000         1.00000         1.00000         1.00000         1.00000         1.00000         1.00000         1.00000         1.00000    
  10      1.00000         1.00000         1.00000         1.00000         1.00000         1.00000         1.00000         1.00000         1.00000         1.00000    
  11      1.00000         1.00000         1.00000         1.00000         1.00000         1.00000         1.00000         1.00000         1.00000         1.00000    
  12      1.00000         1.00000         1.00000         1.00000         1.00000         1.00000         1.00000         1.00000         1.00000         1.00000    
  13      1.00000         1.00000         1.00000         1.00000         1.00000         1.00000         1.00000         1.00000         1.00000         1.00000    
  14      1.00000         1.00000         1.00000         1.00000         1.00000         1.00000         1.00000         1.00000         1.00000         1.00000    
  15      1.00000         1.00000         1.00000         1.00000         1.00000         1.00000         1.00000         1.00000         1.00000         1.00000    

 CONCENTRATION WILL BE SAVED ON UNIT 1030 AT END OF TIME STEP   11, STRESS PERIOD    2


  MASS BUDGET FOR ENTIRE MODEL AT END OF TIME STEP   11, STRESS PERIOD   2
  ---------------------------------------------------------------------------------------------------

     CUMULATIVE MASS      M       RATES FOR THIS TIME STEP      M/T          PACKAGE NAME    
     ------------------                 ------------------------                     ----------------

           IN:                                      IN:
           ---                                      ---
     STORAGE-AQUEOUS =           3.9281       STORAGE-AQUEOUS =           2.0475     MST                              
                 RIV =           0.0000                   RIV =           0.0000     SSM_RIV-1                        
                 CHD =           0.0000                   CHD =           0.0000     SSM_CHD-1                        
                 CNC =           1.6412                   CNC =           0.8524     CNC_0                            

            TOTAL IN =           5.5692              TOTAL IN =           2.8999

          OUT:                                     OUT:
          ----                                     ----
     STORAGE-AQUEOUS =           1.7295       STORAGE-AQUEOUS =           0.8965     MST                              
                 RIV =           0.0000                   RIV =           0.0000     SSM_RIV-1                        
                 CHD =           3.6913                   CHD =           1.9259     SSM_CHD-1                        
                 CNC =           0.1484                   CNC =       7.7438E-02     CNC_0                            

           TOTAL OUT =           5.5692             TOTAL OUT =           2.8999

            IN - OUT =      -4.2870E-10              IN - OUT =       7.4325E-11

 PERCENT DISCREPANCY =          -0.00     PERCENT DISCREPANCY =           0.00




         TIME SUMMARY AT END OF TIME STEP   11 IN STRESS PERIOD    2
                    SECONDS     MINUTES      HOURS       DAYS        YEARS
                    -----------------------------------------------------------
   TIME STEP LENGTH  7200.0      120.00      2.0000     8.33333E-02 2.28154E-04
 STRESS PERIOD TIME  79200.      1320.0      22.000     0.91667     2.50970E-03
         TOTAL TIME 1.65600E+05  2760.0      46.000      1.9167     5.24755E-03


end timestep


start timestep kper="2" kstp="12" mode="normal"

 UBDSV1 SAVING  STORAGE-AQUEOUS ON UNIT   1029 AT TIME STEP     12, STRESS PERIOD      2
 UBDSV1 SAVING     FLOW-JA-FACE ON UNIT   1029 AT TIME STEP     12, STRESS PERIOD      2
 UBDSV06 SAVING  SOURCE-SINK MIX IN MODEL GWT_RIVERBASE    PACKAGE GWT_RIVERBASE   CONNECTED TO MODEL GWT_RIVERBASE    PACKAGE SSM              ON UNIT   1029 AT TIME STEP     12, STRESS PERIOD      2
 UBDSV06 SAVING              CNC IN MODEL GWT_RIVERBASE    PACKAGE GWT_RIVERBASE   CONNECTED TO MODEL GWT_RIVERBASE    PACKAGE CNC_0            ON UNIT   1029 AT TIME STEP     12, STRESS PERIOD      2
1
  CONCENTRATION IN LAYER   1 AT END OF TIME STEP  12 IN STRESS PERIOD    2
  ---------------------------------------------------------------------------

                1               2               3               4               5               6               7               8               9              10
 ................................................................................................................................................................
   1      1.00000         1.00000         1.00000         1.00000         1.00000         1.00000         1.00000         1.00000         1.00000         1.00000    
   2     0.999996         1.00000        0.999996         1.00000         1.00000         1.00000         1.00000         1.00000         1.00000         1.00000    
   3      1.00000        0.999996         1.00000         1.00000         1.00000         1.00000         1.00000         1.00000         1.00000         1.00000    
   4      1.00000         1.00000        0.999995         1.00000         1.00000         1.00000         1.00000         1.00000         1.00000         1.00000    
   5      1.00000         1.00001         1.00000        0.999995        0.999995         1.00000         1.00000         1.00000         1.00000         1.00000    
   6      1.00001         10.0000         1.00000        0.999995         1.00000        0.999995         1.00000         1.00000         1.00000         1.00000    
   7      1.00000         10.0000         1.00000         1.00000         1.00000         1.00000        0.999995         1.00000         1.00000         1.00000    
   8      1.00000         1.00000         1.00000         1.00000         1.00000         1.00000         1.00000        0.999995        0.999994         1.00000    
   9      1.00000         1.00000         1.00000         1.00000         1.00000         1.00000         1.00000        0.999995         1.00000         1.00000    
  10      1.00000         1.00000         1.00000         1.00000         1.00000         1.00000         1.00000         1.00000         1.00000         1.00000    
  11      1.00000         1.00000         1.00000         1.00000         1.00000         1.00000         1.00000         1.00000         1.00000         1.00000    
  12      1.00000         1.00000         1.00000         1.00000         1.00000         1.00000         1.00000         1.00000         1.00000         1.00000    
  13      1.00000         1.00000         1.00000         1.00000         1.00000         1.00000         1.00000         1.00000         1.00000         1.00000    
  14      1.00000         1.00000         1.00000         1.00000         1.00000         1.00000         1.00000         1.00000         1.00000         1.00000    
  15      1.00000         1.00000         1.00000         1.00000         1.00000         1.00000         1.00000         1.00000         1.00000         1.00000    
1
  CONCENTRATION IN LAYER   2 AT END OF TIME STEP  12 IN STRESS PERIOD    2
  ---------------------------------------------------------------------------

                1               2               3               4               5               6               7               8               9              10
 ................................................................................................................................................................
   1      1.00000         1.00000         1.00000         1.00000         1.00000         1.00000         1.00000         1.00000         1.00000         1.00000    
   2      1.00000         1.00000         1.00000         1.00000         1.00000         1.00000         1.00000         1.00000         1.00000         1.00000    
   3      1.00000         1.00000         1.00000         1.00000         1.00000         1.00000         1.00000         1.00000         1.00000         1.00000    
   4      1.00000         1.00000         1.00000         1.00000         1.00000         1.00000         1.00000         1.00000         1.00000         1.00000    
   5      1.00000         1.00000         1.00000         1.00000         1.00000         1.00000         1.00000         1.00000         1.00000         1.00000    
   6      1.00000         1.00000         1.00000         1.00000         1.00000         1.00000         1.00000         1.00000         1.00000         1.00000    
   7      1.00000         1.00000         1.00000         1.00000         1.00000         1.00000         1.00000         1.00000         1.00000         1.00000    
   8      1.00000         1.00000         1.00000         1.00000         1.00000         1.00000         1.00000         1.00000         1.00000         1.00000    
   9      1.00000         1.00000         1.00000         1.00000         1.00000         1.00000         1.00000         1.00000         1.00000         1.00000    
  10      1.00000         1.00000         1.00000         1.00000         1.00000         1.00000         1.00000         1.00000         1.00000         1.00000    
  11      1.00000         1.00000         1.00000         1.00000         1.00000         1.00000         1.00000         1.00000         1.00000         1.00000    
  12      1.00000         1.00000         1.00000         1.00000         1.00000         1.00000         1.00000         1.00000         1.00000         1.00000    
  13      1.00000         1.00000         1.00000         1.00000         1.00000         1.00000         1.00000         1.00000         1.00000         1.00000    
  14      1.00000         1.00000         1.00000         1.00000         1.00000         1.00000         1.00000         1.00000         1.00000         1.00000    
  15      1.00000         1.00000         1.00000         1.00000         1.00000         1.00000         1.00000         1.00000         1.00000         1.00000    
1
  CONCENTRATION IN LAYER   3 AT END OF TIME STEP  12 IN STRESS PERIOD    2
  ---------------------------------------------------------------------------

                1               2               3               4               5               6               7               8               9              10
 ................................................................................................................................................................
   1      1.00000         1.00000         1.00000         1.00000         1.00000         1.00000         1.00000         1.00000         1.00000         1.00000    
   2      1.00000         1.00000         1.00000         1.00000         1.00000         1.00000         1.00000         1.00000         1.00000         1.00000    
   3      1.00000         1.00000         1.00000         1.00000         1.00000         1.00000         1.00000         1.00000         1.00000         1.00000    
   4      1.00000         1.00000         1.00000         1.00000         1.00000         1.00000         1.00000         1.00000         1.00000         1.00000    
   5      1.00000         1.00000         1.00000         1.00000         1.00000         1.00000         1.00000         1.00000         1.00000         1.00000    
   6      1.00000         1.00000         1.00000         1.00000         1.00000         1.00000         1.00000         1.00000         1.00000         1.00000    
   7      1.00000         1.00000         1.00000         1.00000         1.00000         1.00000         1.00000         1.00000         1.00000         1.00000    
   8      1.00000         1.00000         1.00000         1.00000         1.00000         1.00000         1.00000         1.00000         1.00000         1.00000    
   9      1.00000         1.00000         1.00000         1.00000         1.00000         1.00000         1.00000         1.00000         1.00000         1.00000    
  10      1.00000         1.00000         1.00000         1.00000         1.00000         1.00000         1.00000         1.00000         1.00000         1.00000    
  11      1.00000         1.00000         1.00000         1.00000         1.00000         1.00000         1.00000         1.00000         1.00000         1.00000    
  12      1.00000         1.00000         1.00000         1.00000         1.00000         1.00000         1.00000         1.00000         1.00000         1.00000    
  13      1.00000         1.00000         1.00000         1.00000         1.00000         1.00000         1.00000         1.00000         1.00000         1.00000    
  14      1.00000         1.00000         1.00000         1.00000         1.00000         1.00000         1.00000         1.00000         1.00000         1.00000    
  15      1.00000         1.00000         1.00000         1.00000         1.00000         1.00000         1.00000         1.00000         1.00000         1.00000    

 CONCENTRATION WILL BE SAVED ON UNIT 1030 AT END OF TIME STEP   12, STRESS PERIOD    2


  MASS BUDGET FOR ENTIRE MODEL AT END OF TIME STEP   12, STRESS PERIOD   2
  ---------------------------------------------------------------------------------------------------

     CUMULATIVE MASS      M       RATES FOR THIS TIME STEP      M/T          PACKAGE NAME    
     ------------------                 ------------------------                     ----------------

           IN:                                      IN:
           ---                                      ---
     STORAGE-AQUEOUS =           4.0987       STORAGE-AQUEOUS =           2.0475     MST                              
                 RIV =           0.0000                   RIV =           0.0000     SSM_RIV-1                        
                 CHD =           0.0000                   CHD =           0.0000     SSM_CHD-1                        
                 CNC =           1.7122                   CNC =           0.8524     CNC_0                            

            TOTAL IN =           5.8109              TOTAL IN =           2.8999

          OUT:                                     OUT:
          ----                                     ----
     STORAGE-AQUEOUS =           1.8042       STORAGE-AQUEOUS =           0.8965     MST                              
                 RIV =           0.0000                   RIV =           0.0000     SSM_RIV-1                        
                 CHD =           3.8518                   CHD =           1.9259     SSM_CHD-1                        
                 CNC =           0.1549                   CNC =       7.7438E-02     CNC_0                            

           TOTAL OUT =           5.8109             TOTAL OUT =           2.8999

            IN - OUT =      -5.2824E-10              IN - OUT =      -1.1945E-09

 PERCENT DISCREPANCY =          -0.00     PERCENT DISCREPANCY =          -0.00




         TIME SUMMARY AT END OF TIME STEP   12 IN STRESS PERIOD    2
                    SECONDS     MINUTES      HOURS       DAYS        YEARS
                    -----------------------------------------------------------
   TIME STEP LENGTH  7200.0      120.00      2.0000     8.33333E-02 2.28154E-04
 STRESS PERIOD TIME  86400.      1440.0      24.000      1.0000     2.73785E-03
         TOTAL TIME 1.72800E+05  2880.0      48.000      2.0000     5.47570E-03


end timestep


start timestep kper="2" kstp="13" mode="normal"

 UBDSV1 SAVING  STORAGE-AQUEOUS ON UNIT   1029 AT TIME STEP     13, STRESS PERIOD      2
 UBDSV1 SAVING     FLOW-JA-FACE ON UNIT   1029 AT TIME STEP     13, STRESS PERIOD      2
 UBDSV06 SAVING  SOURCE-SINK MIX IN MODEL GWT_RIVERBASE    PACKAGE GWT_RIVERBASE   CONNECTED TO MODEL GWT_RIVERBASE    PACKAGE SSM              ON UNIT   1029 AT TIME STEP     13, STRESS PERIOD      2
 UBDSV06 SAVING              CNC IN MODEL GWT_RIVERBASE    PACKAGE GWT_RIVERBASE   CONNECTED TO MODEL GWT_RIVERBASE    PACKAGE CNC_0            ON UNIT   1029 AT TIME STEP     13, STRESS PERIOD      2
1
  CONCENTRATION IN LAYER   1 AT END OF TIME STEP  13 IN STRESS PERIOD    2
  ---------------------------------------------------------------------------

                1               2               3               4               5               6               7               8               9              10
 ................................................................................................................................................................
   1      1.00000         1.00000         1.00000         1.00000         1.00000         1.00000         1.00000         1.00000         1.00000         1.00000    
   2     0.999996         1.00000        0.999996         1.00000         1.00000         1.00000         1.00000         1.00000         1.00000         1.00000    
   3      1.00000        0.999995         1.00000         1.00000         1.00000         1.00000         1.00000         1.00000         1.00000         1.00000    
   4      1.00000         1.00000        0.999995         1.00000         1.00000         1.00000         1.00000         1.00000         1.00000         1.00000    
   5      1.00000         1.00001         1.00000        0.999995        0.999995         1.00000         1.00000         1.00000         1.00000         1.00000    
   6      1.00001         10.0000         1.00000        0.999995         1.00000        0.999995         1.00000         1.00000         1.00000         1.00000    
   7      1.00000         10.0000         1.00000         1.00000         1.00000         1.00000        0.999995         1.00000         1.00000         1.00000    
   8      1.00000         1.00000         1.00000         1.00000         1.00000         1.00000         1.00000        0.999994        0.999994         1.00000    
   9      1.00000         1.00000         1.00000         1.00000         1.00000         1.00000         1.00000        0.999994         1.00000         1.00000    
  10      1.00000         1.00000         1.00000         1.00000         1.00000         1.00000         1.00000         1.00000         1.00000         1.00000    
  11      1.00000         1.00000         1.00000         1.00000         1.00000         1.00000         1.00000         1.00000         1.00000         1.00000    
  12      1.00000         1.00000         1.00000         1.00000         1.00000         1.00000         1.00000         1.00000         1.00000         1.00000    
  13      1.00000         1.00000         1.00000         1.00000         1.00000         1.00000         1.00000         1.00000         1.00000         1.00000    
  14      1.00000         1.00000         1.00000         1.00000         1.00000         1.00000         1.00000         1.00000         1.00000         1.00000    
  15      1.00000         1.00000         1.00000         1.00000         1.00000         1.00000         1.00000         1.00000         1.00000         1.00000    
1
  CONCENTRATION IN LAYER   2 AT END OF TIME STEP  13 IN STRESS PERIOD    2
  ---------------------------------------------------------------------------

                1               2               3               4               5               6               7               8               9              10
 ................................................................................................................................................................
   1      1.00000         1.00000         1.00000         1.00000         1.00000         1.00000         1.00000         1.00000         1.00000         1.00000    
   2      1.00000         1.00000         1.00000         1.00000         1.00000         1.00000         1.00000         1.00000         1.00000         1.00000    
   3      1.00000         1.00000         1.00000         1.00000         1.00000         1.00000         1.00000         1.00000         1.00000         1.00000    
   4      1.00000         1.00000         1.00000         1.00000         1.00000         1.00000         1.00000         1.00000         1.00000         1.00000    
   5      1.00000         1.00000         1.00000         1.00000         1.00000         1.00000         1.00000         1.00000         1.00000         1.00000    
   6      1.00000         1.00000         1.00000         1.00000         1.00000         1.00000         1.00000         1.00000         1.00000         1.00000    
   7      1.00000         1.00000         1.00000         1.00000         1.00000         1.00000         1.00000         1.00000         1.00000         1.00000    
   8      1.00000         1.00000         1.00000         1.00000         1.00000         1.00000         1.00000         1.00000         1.00000         1.00000    
   9      1.00000         1.00000         1.00000         1.00000         1.00000         1.00000         1.00000         1.00000         1.00000         1.00000    
  10      1.00000         1.00000         1.00000         1.00000         1.00000         1.00000         1.00000         1.00000         1.00000         1.00000    
  11      1.00000         1.00000         1.00000         1.00000         1.00000         1.00000         1.00000         1.00000         1.00000         1.00000    
  12      1.00000         1.00000         1.00000         1.00000         1.00000         1.00000         1.00000         1.00000         1.00000         1.00000    
  13      1.00000         1.00000         1.00000         1.00000         1.00000         1.00000         1.00000         1.00000         1.00000         1.00000    
  14      1.00000         1.00000         1.00000         1.00000         1.00000         1.00000         1.00000         1.00000         1.00000         1.00000    
  15      1.00000         1.00000         1.00000         1.00000         1.00000         1.00000         1.00000         1.00000         1.00000         1.00000    
1
  CONCENTRATION IN LAYER   3 AT END OF TIME STEP  13 IN STRESS PERIOD    2
  ---------------------------------------------------------------------------

                1               2               3               4               5               6               7               8               9              10
 ................................................................................................................................................................
   1      1.00000         1.00000         1.00000         1.00000         1.00000         1.00000         1.00000         1.00000         1.00000         1.00000    
   2      1.00000         1.00000         1.00000         1.00000         1.00000         1.00000         1.00000         1.00000         1.00000         1.00000    
   3      1.00000         1.00000         1.00000         1.00000         1.00000         1.00000         1.00000         1.00000         1.00000         1.00000    
   4      1.00000         1.00000         1.00000         1.00000         1.00000         1.00000         1.00000         1.00000         1.00000         1.00000    
   5      1.00000         1.00000         1.00000         1.00000         1.00000         1.00000         1.00000         1.00000         1.00000         1.00000    
   6      1.00000         1.00000         1.00000         1.00000         1.00000         1.00000         1.00000         1.00000         1.00000         1.00000    
   7      1.00000         1.00000         1.00000         1.00000         1.00000         1.00000         1.00000         1.00000         1.00000         1.00000    
   8      1.00000         1.00000         1.00000         1.00000         1.00000         1.00000         1.00000         1.00000         1.00000         1.00000    
   9      1.00000         1.00000         1.00000         1.00000         1.00000         1.00000         1.00000         1.00000         1.00000         1.00000    
  10      1.00000         1.00000         1.00000         1.00000         1.00000         1.00000         1.00000         1.00000         1.00000         1.00000    
  11      1.00000         1.00000         1.00000         1.00000         1.00000         1.00000         1.00000         1.00000         1.00000         1.00000    
  12      1.00000         1.00000         1.00000         1.00000         1.00000         1.00000         1.00000         1.00000         1.00000         1.00000    
  13      1.00000         1.00000         1.00000         1.00000         1.00000         1.00000         1.00000         1.00000         1.00000         1.00000    
  14      1.00000         1.00000         1.00000         1.00000         1.00000         1.00000         1.00000         1.00000         1.00000         1.00000    
  15      1.00000         1.00000         1.00000         1.00000         1.00000         1.00000         1.00000         1.00000         1.00000         1.00000    

 CONCENTRATION WILL BE SAVED ON UNIT 1030 AT END OF TIME STEP   13, STRESS PERIOD    2


  MASS BUDGET FOR ENTIRE MODEL AT END OF TIME STEP   13, STRESS PERIOD   2
  ---------------------------------------------------------------------------------------------------

     CUMULATIVE MASS      M       RATES FOR THIS TIME STEP      M/T          PACKAGE NAME    
     ------------------                 ------------------------                     ----------------

           IN:                                      IN:
           ---                                      ---
     STORAGE-AQUEOUS =           4.2693       STORAGE-AQUEOUS =           2.0475     MST                              
                 RIV =           0.0000                   RIV =           0.0000     SSM_RIV-1                        
                 CHD =           0.0000                   CHD =           0.0000     SSM_CHD-1                        
                 CNC =           1.7832                   CNC =           0.8524     CNC_0                            

            TOTAL IN =           6.0526              TOTAL IN =           2.8999

          OUT:                                     OUT:
          ----                                     ----
     STORAGE-AQUEOUS =           1.8789       STORAGE-AQUEOUS =           0.8965     MST                              
                 RIV =           0.0000                   RIV =           0.0000     SSM_RIV-1                        
                 CHD =           4.0123                   CHD =           1.9259     SSM_CHD-1                        
                 CNC =           0.1613                   CNC =       7.7438E-02     CNC_0                            

           TOTAL OUT =           6.0526             TOTAL OUT =           2.8999

            IN - OUT =      -6.2491E-10              IN - OUT =      -1.1600E-09

 PERCENT DISCREPANCY =          -0.00     PERCENT DISCREPANCY =          -0.00




         TIME SUMMARY AT END OF TIME STEP   13 IN STRESS PERIOD    2
                    SECONDS     MINUTES      HOURS       DAYS        YEARS
                    -----------------------------------------------------------
   TIME STEP LENGTH  7200.0      120.00      2.0000     8.33333E-02 2.28154E-04
 STRESS PERIOD TIME  93600.      1560.0      26.000      1.0833     2.96601E-03
         TOTAL TIME 1.80000E+05  3000.0      50.000      2.0833     5.70386E-03


end timestep


start timestep kper="2" kstp="14" mode="normal"

 UBDSV1 SAVING  STORAGE-AQUEOUS ON UNIT   1029 AT TIME STEP     14, STRESS PERIOD      2
 UBDSV1 SAVING     FLOW-JA-FACE ON UNIT   1029 AT TIME STEP     14, STRESS PERIOD      2
 UBDSV06 SAVING  SOURCE-SINK MIX IN MODEL GWT_RIVERBASE    PACKAGE GWT_RIVERBASE   CONNECTED TO MODEL GWT_RIVERBASE    PACKAGE SSM              ON UNIT   1029 AT TIME STEP     14, STRESS PERIOD      2
 UBDSV06 SAVING              CNC IN MODEL GWT_RIVERBASE    PACKAGE GWT_RIVERBASE   CONNECTED TO MODEL GWT_RIVERBASE    PACKAGE CNC_0            ON UNIT   1029 AT TIME STEP     14, STRESS PERIOD      2
1
  CONCENTRATION IN LAYER   1 AT END OF TIME STEP  14 IN STRESS PERIOD    2
  ---------------------------------------------------------------------------

                1               2               3               4               5               6               7               8               9              10
 ................................................................................................................................................................
   1      1.00000         1.00000         1.00000         1.00000         1.00000         1.00000         1.00000         1.00000         1.00000         1.00000    
   2     0.999995         1.00000        0.999995         1.00000         1.00000         1.00000         1.00000         1.00000         1.00000         1.00000    
   3      1.00000        0.999995         1.00000         1.00000         1.00000         1.00000         1.00000         1.00000         1.00000         1.00000    
   4      1.00000         1.00000        0.999995         1.00000         1.00000         1.00000         1.00000         1.00000         1.00000         1.00000    
   5      1.00000         1.00001         1.00000        0.999995        0.999995         1.00000         1.00000         1.00000         1.00000         1.00000    
   6      1.00001         10.0000         1.00000        0.999995         1.00000        0.999995         1.00000         1.00000         1.00000         1.00000    
   7      1.00000         10.0000         1.00000         1.00000         1.00000         1.00000        0.999994         1.00000         1.00000         1.00000    
   8      1.00000         1.00001         1.00000         1.00000         1.00000         1.00000         1.00000        0.999994        0.999994         1.00000    
   9      1.00000         1.00000         1.00000         1.00000         1.00000         1.00000         1.00000        0.999994         1.00000         1.00000    
  10      1.00000         1.00000         1.00000         1.00000         1.00000         1.00000         1.00000         1.00000         1.00000         1.00000    
  11      1.00000         1.00000         1.00000         1.00000         1.00000         1.00000         1.00000         1.00000         1.00000         1.00000    
  12      1.00000         1.00000         1.00000         1.00000         1.00000         1.00000         1.00000         1.00000         1.00000         1.00000    
  13      1.00000         1.00000         1.00000         1.00000         1.00000         1.00000         1.00000         1.00000         1.00000         1.00000    
  14      1.00000         1.00000         1.00000         1.00000         1.00000         1.00000         1.00000         1.00000         1.00000         1.00000    
  15      1.00000         1.00000         1.00000         1.00000         1.00000         1.00000         1.00000         1.00000         1.00000         1.00000    
1
  CONCENTRATION IN LAYER   2 AT END OF TIME STEP  14 IN STRESS PERIOD    2
  ---------------------------------------------------------------------------

                1               2               3               4               5               6               7               8               9              10
 ................................................................................................................................................................
   1      1.00000         1.00000         1.00000         1.00000         1.00000         1.00000         1.00000         1.00000         1.00000         1.00000    
   2      1.00000         1.00000         1.00000         1.00000         1.00000         1.00000         1.00000         1.00000         1.00000         1.00000    
   3      1.00000         1.00000         1.00000         1.00000         1.00000         1.00000         1.00000         1.00000         1.00000         1.00000    
   4      1.00000         1.00000         1.00000         1.00000         1.00000         1.00000         1.00000         1.00000         1.00000         1.00000    
   5      1.00000         1.00000         1.00000         1.00000         1.00000         1.00000         1.00000         1.00000         1.00000         1.00000    
   6      1.00000         1.00000         1.00000         1.00000         1.00000         1.00000         1.00000         1.00000         1.00000         1.00000    
   7      1.00000         1.00000         1.00000         1.00000         1.00000         1.00000         1.00000         1.00000         1.00000         1.00000    
   8      1.00000         1.00000         1.00000         1.00000         1.00000         1.00000         1.00000         1.00000         1.00000         1.00000    
   9      1.00000         1.00000         1.00000         1.00000         1.00000         1.00000         1.00000         1.00000         1.00000         1.00000    
  10      1.00000         1.00000         1.00000         1.00000         1.00000         1.00000         1.00000         1.00000         1.00000         1.00000    
  11      1.00000         1.00000         1.00000         1.00000         1.00000         1.00000         1.00000         1.00000         1.00000         1.00000    
  12      1.00000         1.00000         1.00000         1.00000         1.00000         1.00000         1.00000         1.00000         1.00000         1.00000    
  13      1.00000         1.00000         1.00000         1.00000         1.00000         1.00000         1.00000         1.00000         1.00000         1.00000    
  14      1.00000         1.00000         1.00000         1.00000         1.00000         1.00000         1.00000         1.00000         1.00000         1.00000    
  15      1.00000         1.00000         1.00000         1.00000         1.00000         1.00000         1.00000         1.00000         1.00000         1.00000    
1
  CONCENTRATION IN LAYER   3 AT END OF TIME STEP  14 IN STRESS PERIOD    2
  ---------------------------------------------------------------------------

                1               2               3               4               5               6               7               8               9              10
 ................................................................................................................................................................
   1      1.00000         1.00000         1.00000         1.00000         1.00000         1.00000         1.00000         1.00000         1.00000         1.00000    
   2      1.00000         1.00000         1.00000         1.00000         1.00000         1.00000         1.00000         1.00000         1.00000         1.00000    
   3      1.00000         1.00000         1.00000         1.00000         1.00000         1.00000         1.00000         1.00000         1.00000         1.00000    
   4      1.00000         1.00000         1.00000         1.00000         1.00000         1.00000         1.00000         1.00000         1.00000         1.00000    
   5      1.00000         1.00000         1.00000         1.00000         1.00000         1.00000         1.00000         1.00000         1.00000         1.00000    
   6      1.00000         1.00000         1.00000         1.00000         1.00000         1.00000         1.00000         1.00000         1.00000         1.00000    
   7      1.00000         1.00000         1.00000         1.00000         1.00000         1.00000         1.00000         1.00000         1.00000         1.00000    
   8      1.00000         1.00000         1.00000         1.00000         1.00000         1.00000         1.00000         1.00000         1.00000         1.00000    
   9      1.00000         1.00000         1.00000         1.00000         1.00000         1.00000         1.00000         1.00000         1.00000         1.00000    
  10      1.00000         1.00000         1.00000         1.00000         1.00000         1.00000         1.00000         1.00000         1.00000         1.00000    
  11      1.00000         1.00000         1.00000         1.00000         1.00000         1.00000         1.00000         1.00000         1.00000         1.00000    
  12      1.00000         1.00000         1.00000         1.00000         1.00000         1.00000         1.00000         1.00000         1.00000         1.00000    
  13      1.00000         1.00000         1.00000         1.00000         1.00000         1.00000         1.00000         1.00000         1.00000         1.00000    
  14      1.00000         1.00000         1.00000         1.00000         1.00000         1.00000         1.00000         1.00000         1.00000         1.00000    
  15      1.00000         1.00000         1.00000         1.00000         1.00000         1.00000         1.00000         1.00000         1.00000         1.00000    

 CONCENTRATION WILL BE SAVED ON UNIT 1030 AT END OF TIME STEP   14, STRESS PERIOD    2


  MASS BUDGET FOR ENTIRE MODEL AT END OF TIME STEP   14, STRESS PERIOD   2
  ---------------------------------------------------------------------------------------------------

     CUMULATIVE MASS      M       RATES FOR THIS TIME STEP      M/T          PACKAGE NAME    
     ------------------                 ------------------------                     ----------------

           IN:                                      IN:
           ---                                      ---
     STORAGE-AQUEOUS =           4.4399       STORAGE-AQUEOUS =           2.0475     MST                              
                 RIV =           0.0000                   RIV =           0.0000     SSM_RIV-1                        
                 CHD =           0.0000                   CHD =           0.0000     SSM_CHD-1                        
                 CNC =           1.8543                   CNC =           0.8524     CNC_0                            

            TOTAL IN =           6.2942              TOTAL IN =           2.8999

          OUT:                                     OUT:
          ----                                     ----
     STORAGE-AQUEOUS =           1.9536       STORAGE-AQUEOUS =           0.8965     MST                              
                 RIV =           0.0000                   RIV =           0.0000     SSM_RIV-1                        
                 CHD =           4.1728                   CHD =           1.9259     SSM_CHD-1                        
                 CNC =           0.1678                   CNC =       7.7438E-02     CNC_0                            

           TOTAL OUT =           6.2942             TOTAL OUT =           2.8999

            IN - OUT =      -7.4422E-10              IN - OUT =      -1.4317E-09

 PERCENT DISCREPANCY =          -0.00     PERCENT DISCREPANCY =          -0.00




         TIME SUMMARY AT END OF TIME STEP   14 IN STRESS PERIOD    2
                    SECONDS     MINUTES      HOURS       DAYS        YEARS
                    -----------------------------------------------------------
   TIME STEP LENGTH  7200.0      120.00      2.0000     8.33333E-02 2.28154E-04
 STRESS PERIOD TIME 1.00800E+05  1680.0      28.000      1.1667     3.19416E-03
         TOTAL TIME 1.87200E+05  3120.0      52.000      2.1667     5.93201E-03


end timestep


start timestep kper="2" kstp="15" mode="normal"

 UBDSV1 SAVING  STORAGE-AQUEOUS ON UNIT   1029 AT TIME STEP     15, STRESS PERIOD      2
 UBDSV1 SAVING     FLOW-JA-FACE ON UNIT   1029 AT TIME STEP     15, STRESS PERIOD      2
 UBDSV06 SAVING  SOURCE-SINK MIX IN MODEL GWT_RIVERBASE    PACKAGE GWT_RIVERBASE   CONNECTED TO MODEL GWT_RIVERBASE    PACKAGE SSM              ON UNIT   1029 AT TIME STEP     15, STRESS PERIOD      2
 UBDSV06 SAVING              CNC IN MODEL GWT_RIVERBASE    PACKAGE GWT_RIVERBASE   CONNECTED TO MODEL GWT_RIVERBASE    PACKAGE CNC_0            ON UNIT   1029 AT TIME STEP     15, STRESS PERIOD      2
1
  CONCENTRATION IN LAYER   1 AT END OF TIME STEP  15 IN STRESS PERIOD    2
  ---------------------------------------------------------------------------

                1               2               3               4               5               6               7               8               9              10
 ................................................................................................................................................................
   1      1.00000         1.00000         1.00000         1.00000         1.00000         1.00000         1.00000         1.00000         1.00000         1.00000    
   2     0.999995         1.00000        0.999995         1.00000         1.00000         1.00000         1.00000         1.00000         1.00000         1.00000    
   3      1.00000        0.999995         1.00000         1.00000         1.00000         1.00000         1.00000         1.00000         1.00000         1.00000    
   4      1.00000         1.00000        0.999995         1.00000         1.00000         1.00000         1.00000         1.00000         1.00000         1.00000    
   5      1.00000         1.00001         1.00000        0.999995        0.999994         1.00000         1.00000         1.00000         1.00000         1.00000    
   6      1.00001         10.0000         1.00000        0.999995         1.00000        0.999994         1.00000         1.00000         1.00000         1.00000    
   7      1.00001         10.0000         1.00000         1.00000         1.00000         1.00000        0.999994         1.00000         1.00000         1.00000    
   8      1.00000         1.00001         1.00000         1.00000         1.00000         1.00000         1.00000        0.999994        0.999994         1.00000    
   9      1.00000         1.00000         1.00000         1.00000         1.00000         1.00000         1.00000        0.999994         1.00000         1.00000    
  10      1.00000         1.00000         1.00000         1.00000         1.00000         1.00000         1.00000         1.00000         1.00000         1.00000    
  11      1.00000         1.00000         1.00000         1.00000         1.00000         1.00000         1.00000         1.00000         1.00000         1.00000    
  12      1.00000         1.00000         1.00000         1.00000         1.00000         1.00000         1.00000         1.00000         1.00000         1.00000    
  13      1.00000         1.00000         1.00000         1.00000         1.00000         1.00000         1.00000         1.00000         1.00000         1.00000    
  14      1.00000         1.00000         1.00000         1.00000         1.00000         1.00000         1.00000         1.00000         1.00000         1.00000    
  15      1.00000         1.00000         1.00000         1.00000         1.00000         1.00000         1.00000         1.00000         1.00000         1.00000    
1
  CONCENTRATION IN LAYER   2 AT END OF TIME STEP  15 IN STRESS PERIOD    2
  ---------------------------------------------------------------------------

                1               2               3               4               5               6               7               8               9              10
 ................................................................................................................................................................
   1      1.00000         1.00000         1.00000         1.00000         1.00000         1.00000         1.00000         1.00000         1.00000         1.00000    
   2      1.00000         1.00000         1.00000         1.00000         1.00000         1.00000         1.00000         1.00000         1.00000         1.00000    
   3      1.00000         1.00000         1.00000         1.00000         1.00000         1.00000         1.00000         1.00000         1.00000         1.00000    
   4      1.00000         1.00000         1.00000         1.00000         1.00000         1.00000         1.00000         1.00000         1.00000         1.00000    
   5      1.00000         1.00000         1.00000         1.00000         1.00000         1.00000         1.00000         1.00000         1.00000         1.00000    
   6      1.00000         1.00000         1.00000         1.00000         1.00000         1.00000         1.00000         1.00000         1.00000         1.00000    
   7      1.00000         1.00000         1.00000         1.00000         1.00000         1.00000         1.00000         1.00000         1.00000         1.00000    
   8      1.00000         1.00000         1.00000         1.00000         1.00000         1.00000         1.00000         1.00000         1.00000         1.00000    
   9      1.00000         1.00000         1.00000         1.00000         1.00000         1.00000         1.00000         1.00000         1.00000         1.00000    
  10      1.00000         1.00000         1.00000         1.00000         1.00000         1.00000         1.00000         1.00000         1.00000         1.00000    
  11      1.00000         1.00000         1.00000         1.00000         1.00000         1.00000         1.00000         1.00000         1.00000         1.00000    
  12      1.00000         1.00000         1.00000         1.00000         1.00000         1.00000         1.00000         1.00000         1.00000         1.00000    
  13      1.00000         1.00000         1.00000         1.00000         1.00000         1.00000         1.00000         1.00000         1.00000         1.00000    
  14      1.00000         1.00000         1.00000         1.00000         1.00000         1.00000         1.00000         1.00000         1.00000         1.00000    
  15      1.00000         1.00000         1.00000         1.00000         1.00000         1.00000         1.00000         1.00000         1.00000         1.00000    
1
  CONCENTRATION IN LAYER   3 AT END OF TIME STEP  15 IN STRESS PERIOD    2
  ---------------------------------------------------------------------------

                1               2               3               4               5               6               7               8               9              10
 ................................................................................................................................................................
   1      1.00000         1.00000         1.00000         1.00000         1.00000         1.00000         1.00000         1.00000         1.00000         1.00000    
   2      1.00000         1.00000         1.00000         1.00000         1.00000         1.00000         1.00000         1.00000         1.00000         1.00000    
   3      1.00000         1.00000         1.00000         1.00000         1.00000         1.00000         1.00000         1.00000         1.00000         1.00000    
   4      1.00000         1.00000         1.00000         1.00000         1.00000         1.00000         1.00000         1.00000         1.00000         1.00000    
   5      1.00000         1.00000         1.00000         1.00000         1.00000         1.00000         1.00000         1.00000         1.00000         1.00000    
   6      1.00000         1.00000         1.00000         1.00000         1.00000         1.00000         1.00000         1.00000         1.00000         1.00000    
   7      1.00000         1.00000         1.00000         1.00000         1.00000         1.00000         1.00000         1.00000         1.00000         1.00000    
   8      1.00000         1.00000         1.00000         1.00000         1.00000         1.00000         1.00000         1.00000         1.00000         1.00000    
   9      1.00000         1.00000         1.00000         1.00000         1.00000         1.00000         1.00000         1.00000         1.00000         1.00000    
  10      1.00000         1.00000         1.00000         1.00000         1.00000         1.00000         1.00000         1.00000         1.00000         1.00000    
  11      1.00000         1.00000         1.00000         1.00000         1.00000         1.00000         1.00000         1.00000         1.00000         1.00000    
  12      1.00000         1.00000         1.00000         1.00000         1.00000         1.00000         1.00000         1.00000         1.00000         1.00000    
  13      1.00000         1.00000         1.00000         1.00000         1.00000         1.00000         1.00000         1.00000         1.00000         1.00000    
  14      1.00000         1.00000         1.00000         1.00000         1.00000         1.00000         1.00000         1.00000         1.00000         1.00000    
  15      1.00000         1.00000         1.00000         1.00000         1.00000         1.00000         1.00000         1.00000         1.00000         1.00000    

 CONCENTRATION WILL BE SAVED ON UNIT 1030 AT END OF TIME STEP   15, STRESS PERIOD    2


  MASS BUDGET FOR ENTIRE MODEL AT END OF TIME STEP   15, STRESS PERIOD   2
  ---------------------------------------------------------------------------------------------------

     CUMULATIVE MASS      M       RATES FOR THIS TIME STEP      M/T          PACKAGE NAME    
     ------------------                 ------------------------                     ----------------

           IN:                                      IN:
           ---                                      ---
     STORAGE-AQUEOUS =           4.6106       STORAGE-AQUEOUS =           2.0475     MST                              
                 RIV =           0.0000                   RIV =           0.0000     SSM_RIV-1                        
                 CHD =           0.0000                   CHD =           0.0000     SSM_CHD-1                        
                 CNC =           1.9253                   CNC =           0.8524     CNC_0                            

            TOTAL IN =           6.5359              TOTAL IN =           2.8999

          OUT:                                     OUT:
          ----                                     ----
     STORAGE-AQUEOUS =           2.0283       STORAGE-AQUEOUS =           0.8965     MST                              
                 RIV =           0.0000                   RIV =           0.0000     SSM_RIV-1                        
                 CHD =           4.3333                   CHD =           1.9259     SSM_CHD-1                        
                 CNC =           0.1742                   CNC =       7.7438E-02     CNC_0                            

           TOTAL OUT =           6.5359             TOTAL OUT =           2.8999

            IN - OUT =      -7.0275E-10              IN - OUT =       4.9760E-10

 PERCENT DISCREPANCY =          -0.00     PERCENT DISCREPANCY =           0.00




         TIME SUMMARY AT END OF TIME STEP   15 IN STRESS PERIOD    2
                    SECONDS     MINUTES      HOURS       DAYS        YEARS
                    -----------------------------------------------------------
   TIME STEP LENGTH  7200.0      120.00      2.0000     8.33333E-02 2.28154E-04
 STRESS PERIOD TIME 1.08000E+05  1800.0      30.000      1.2500     3.42231E-03
         TOTAL TIME 1.94400E+05  3240.0      54.000      2.2500     6.16016E-03


end timestep


start timestep kper="2" kstp="16" mode="normal"

 UBDSV1 SAVING  STORAGE-AQUEOUS ON UNIT   1029 AT TIME STEP     16, STRESS PERIOD      2
 UBDSV1 SAVING     FLOW-JA-FACE ON UNIT   1029 AT TIME STEP     16, STRESS PERIOD      2
 UBDSV06 SAVING  SOURCE-SINK MIX IN MODEL GWT_RIVERBASE    PACKAGE GWT_RIVERBASE   CONNECTED TO MODEL GWT_RIVERBASE    PACKAGE SSM              ON UNIT   1029 AT TIME STEP     16, STRESS PERIOD      2
 UBDSV06 SAVING              CNC IN MODEL GWT_RIVERBASE    PACKAGE GWT_RIVERBASE   CONNECTED TO MODEL GWT_RIVERBASE    PACKAGE CNC_0            ON UNIT   1029 AT TIME STEP     16, STRESS PERIOD      2
1
  CONCENTRATION IN LAYER   1 AT END OF TIME STEP  16 IN STRESS PERIOD    2
  ---------------------------------------------------------------------------

                1               2               3               4               5               6               7               8               9              10
 ................................................................................................................................................................
   1      1.00000         1.00000         1.00000         1.00000         1.00000         1.00000         1.00000         1.00000         1.00000         1.00000    
   2     0.999995         1.00000        0.999995         1.00000         1.00000         1.00000         1.00000         1.00000         1.00000         1.00000    
   3      1.00000        0.999995         1.00000         1.00000         1.00000         1.00000         1.00000         1.00000         1.00000         1.00000    
   4      1.00000         1.00000        0.999995         1.00000         1.00000         1.00000         1.00000         1.00000         1.00000         1.00000    
   5      1.00000         1.00001         1.00000        0.999995        0.999994         1.00000         1.00000         1.00000         1.00000         1.00000    
   6      1.00001         10.0000         1.00000        0.999994         1.00000        0.999994         1.00000         1.00000         1.00000         1.00000    
   7      1.00001         10.0000         1.00000         1.00000         1.00000         1.00000        0.999994         1.00000         1.00000         1.00000    
   8      1.00000         1.00001         1.00000         1.00000         1.00000         1.00000         1.00000        0.999994        0.999994         1.00000    
   9      1.00000         1.00000         1.00000         1.00000         1.00000         1.00000         1.00000        0.999994         1.00000         1.00000    
  10      1.00000         1.00000         1.00000         1.00000         1.00000         1.00000         1.00000         1.00000         1.00000         1.00000    
  11      1.00000         1.00000         1.00000         1.00000         1.00000         1.00000         1.00000         1.00000         1.00000         1.00000    
  12      1.00000         1.00000         1.00000         1.00000         1.00000         1.00000         1.00000         1.00000         1.00000         1.00000    
  13      1.00000         1.00000         1.00000         1.00000         1.00000         1.00000         1.00000         1.00000         1.00000         1.00000    
  14      1.00000         1.00000         1.00000         1.00000         1.00000         1.00000         1.00000         1.00000         1.00000         1.00000    
  15      1.00000         1.00000         1.00000         1.00000         1.00000         1.00000         1.00000         1.00000         1.00000         1.00000    
1
  CONCENTRATION IN LAYER   2 AT END OF TIME STEP  16 IN STRESS PERIOD    2
  ---------------------------------------------------------------------------

                1               2               3               4               5               6               7               8               9              10
 ................................................................................................................................................................
   1      1.00000         1.00000         1.00000         1.00000         1.00000         1.00000         1.00000         1.00000         1.00000         1.00000    
   2      1.00000         1.00000         1.00000         1.00000         1.00000         1.00000         1.00000         1.00000         1.00000         1.00000    
   3      1.00000         1.00000         1.00000         1.00000         1.00000         1.00000         1.00000         1.00000         1.00000         1.00000    
   4      1.00000         1.00000         1.00000         1.00000         1.00000         1.00000         1.00000         1.00000         1.00000         1.00000    
   5      1.00000         1.00000         1.00000         1.00000         1.00000         1.00000         1.00000         1.00000         1.00000         1.00000    
   6      1.00000         1.00000         1.00000         1.00000         1.00000         1.00000         1.00000         1.00000         1.00000         1.00000    
   7      1.00000         1.00000         1.00000         1.00000         1.00000         1.00000         1.00000         1.00000         1.00000         1.00000    
   8      1.00000         1.00000         1.00000         1.00000         1.00000         1.00000         1.00000         1.00000         1.00000         1.00000    
   9      1.00000         1.00000         1.00000         1.00000         1.00000         1.00000         1.00000         1.00000         1.00000         1.00000    
  10      1.00000         1.00000         1.00000         1.00000         1.00000         1.00000         1.00000         1.00000         1.00000         1.00000    
  11      1.00000         1.00000         1.00000         1.00000         1.00000         1.00000         1.00000         1.00000         1.00000         1.00000    
  12      1.00000         1.00000         1.00000         1.00000         1.00000         1.00000         1.00000         1.00000         1.00000         1.00000    
  13      1.00000         1.00000         1.00000         1.00000         1.00000         1.00000         1.00000         1.00000         1.00000         1.00000    
  14      1.00000         1.00000         1.00000         1.00000         1.00000         1.00000         1.00000         1.00000         1.00000         1.00000    
  15      1.00000         1.00000         1.00000         1.00000         1.00000         1.00000         1.00000         1.00000         1.00000         1.00000    
1
  CONCENTRATION IN LAYER   3 AT END OF TIME STEP  16 IN STRESS PERIOD    2
  ---------------------------------------------------------------------------

                1               2               3               4               5               6               7               8               9              10
 ................................................................................................................................................................
   1      1.00000         1.00000         1.00000         1.00000         1.00000         1.00000         1.00000         1.00000         1.00000         1.00000    
   2      1.00000         1.00000         1.00000         1.00000         1.00000         1.00000         1.00000         1.00000         1.00000         1.00000    
   3      1.00000         1.00000         1.00000         1.00000         1.00000         1.00000         1.00000         1.00000         1.00000         1.00000    
   4      1.00000         1.00000         1.00000         1.00000         1.00000         1.00000         1.00000         1.00000         1.00000         1.00000    
   5      1.00000         1.00000         1.00000         1.00000         1.00000         1.00000         1.00000         1.00000         1.00000         1.00000    
   6      1.00000         1.00000         1.00000         1.00000         1.00000         1.00000         1.00000         1.00000         1.00000         1.00000    
   7      1.00000         1.00000         1.00000         1.00000         1.00000         1.00000         1.00000         1.00000         1.00000         1.00000    
   8      1.00000         1.00000         1.00000         1.00000         1.00000         1.00000         1.00000         1.00000         1.00000         1.00000    
   9      1.00000         1.00000         1.00000         1.00000         1.00000         1.00000         1.00000         1.00000         1.00000         1.00000    
  10      1.00000         1.00000         1.00000         1.00000         1.00000         1.00000         1.00000         1.00000         1.00000         1.00000    
  11      1.00000         1.00000         1.00000         1.00000         1.00000         1.00000         1.00000         1.00000         1.00000         1.00000    
  12      1.00000         1.00000         1.00000         1.00000         1.00000         1.00000         1.00000         1.00000         1.00000         1.00000    
  13      1.00000         1.00000         1.00000         1.00000         1.00000         1.00000         1.00000         1.00000         1.00000         1.00000    
  14      1.00000         1.00000         1.00000         1.00000         1.00000         1.00000         1.00000         1.00000         1.00000         1.00000    
  15      1.00000         1.00000         1.00000         1.00000         1.00000         1.00000         1.00000         1.00000         1.00000         1.00000    

 CONCENTRATION WILL BE SAVED ON UNIT 1030 AT END OF TIME STEP   16, STRESS PERIOD    2


  MASS BUDGET FOR ENTIRE MODEL AT END OF TIME STEP   16, STRESS PERIOD   2
  ---------------------------------------------------------------------------------------------------

     CUMULATIVE MASS      M       RATES FOR THIS TIME STEP      M/T          PACKAGE NAME    
     ------------------                 ------------------------                     ----------------

           IN:                                      IN:
           ---                                      ---
     STORAGE-AQUEOUS =           4.7812       STORAGE-AQUEOUS =           2.0475     MST                              
                 RIV =           0.0000                   RIV =           0.0000     SSM_RIV-1                        
                 CHD =           0.0000                   CHD =           0.0000     SSM_CHD-1                        
                 CNC =           1.9963                   CNC =           0.8524     CNC_0                            

            TOTAL IN =           6.7775              TOTAL IN =           2.8999

          OUT:                                     OUT:
          ----                                     ----
     STORAGE-AQUEOUS =           2.1031       STORAGE-AQUEOUS =           0.8965     MST                              
                 RIV =           0.0000                   RIV =           0.0000     SSM_RIV-1                        
                 CHD =           4.4938                   CHD =           1.9259     SSM_CHD-1                        
                 CNC =           0.1807                   CNC =       7.7438E-02     CNC_0                            

           TOTAL OUT =           6.7775             TOTAL OUT =           2.8999

            IN - OUT =      -6.3473E-10              IN - OUT =       8.1619E-10

 PERCENT DISCREPANCY =          -0.00     PERCENT DISCREPANCY =           0.00




         TIME SUMMARY AT END OF TIME STEP   16 IN STRESS PERIOD    2
                    SECONDS     MINUTES      HOURS       DAYS        YEARS
                    -----------------------------------------------------------
   TIME STEP LENGTH  7200.0      120.00      2.0000     8.33333E-02 2.28154E-04
 STRESS PERIOD TIME 1.15200E+05  1920.0      32.000      1.3333     3.65047E-03
         TOTAL TIME 2.01600E+05  3360.0      56.000      2.3333     6.38832E-03


end timestep


start timestep kper="2" kstp="17" mode="normal"

 UBDSV1 SAVING  STORAGE-AQUEOUS ON UNIT   1029 AT TIME STEP     17, STRESS PERIOD      2
 UBDSV1 SAVING     FLOW-JA-FACE ON UNIT   1029 AT TIME STEP     17, STRESS PERIOD      2
 UBDSV06 SAVING  SOURCE-SINK MIX IN MODEL GWT_RIVERBASE    PACKAGE GWT_RIVERBASE   CONNECTED TO MODEL GWT_RIVERBASE    PACKAGE SSM              ON UNIT   1029 AT TIME STEP     17, STRESS PERIOD      2
 UBDSV06 SAVING              CNC IN MODEL GWT_RIVERBASE    PACKAGE GWT_RIVERBASE   CONNECTED TO MODEL GWT_RIVERBASE    PACKAGE CNC_0            ON UNIT   1029 AT TIME STEP     17, STRESS PERIOD      2
1
  CONCENTRATION IN LAYER   1 AT END OF TIME STEP  17 IN STRESS PERIOD    2
  ---------------------------------------------------------------------------

                1               2               3               4               5               6               7               8               9              10
 ................................................................................................................................................................
   1      1.00000         1.00000         1.00000         1.00000         1.00000         1.00000         1.00000         1.00000         1.00000         1.00000    
   2     0.999995         1.00000        0.999995         1.00000         1.00000         1.00000         1.00000         1.00000         1.00000         1.00000    
   3      1.00000        0.999995         1.00000         1.00000         1.00000         1.00000         1.00000         1.00000         1.00000         1.00000    
   4      1.00000         1.00000        0.999995         1.00000         1.00000         1.00000         1.00000         1.00000         1.00000         1.00000    
   5      1.00000         1.00001         1.00000        0.999994        0.999994         1.00000         1.00000         1.00000         1.00000         1.00000    
   6      1.00001         10.0000         1.00000        0.999994         1.00000        0.999994         1.00000         1.00000         1.00000         1.00000    
   7      1.00001         10.0000         1.00000         1.00000         1.00000         1.00000        0.999994         1.00000         1.00000         1.00000    
   8      1.00000         1.00001         1.00000         1.00000         1.00000         1.00000         1.00000        0.999994        0.999993         1.00000    
   9      1.00000         1.00000         1.00000         1.00000         1.00000         1.00000         1.00000        0.999993         1.00000         1.00000    
  10      1.00000         1.00000         1.00000         1.00000         1.00000         1.00000         1.00000         1.00000         1.00000         1.00000    
  11      1.00000         1.00000         1.00000         1.00000         1.00000         1.00000         1.00000         1.00000         1.00000         1.00000    
  12      1.00000         1.00000         1.00000         1.00000         1.00000         1.00000         1.00000         1.00000         1.00000         1.00000    
  13      1.00000         1.00000         1.00000         1.00000         1.00000         1.00000         1.00000         1.00000         1.00000         1.00000    
  14      1.00000         1.00000         1.00000         1.00000         1.00000         1.00000         1.00000         1.00000         1.00000         1.00000    
  15      1.00000         1.00000         1.00000         1.00000         1.00000         1.00000         1.00000         1.00000         1.00000         1.00000    
1
  CONCENTRATION IN LAYER   2 AT END OF TIME STEP  17 IN STRESS PERIOD    2
  ---------------------------------------------------------------------------

                1               2               3               4               5               6               7               8               9              10
 ................................................................................................................................................................
   1      1.00000         1.00000         1.00000         1.00000         1.00000         1.00000         1.00000         1.00000         1.00000         1.00000    
   2      1.00000         1.00000         1.00000         1.00000         1.00000         1.00000         1.00000         1.00000         1.00000         1.00000    
   3      1.00000         1.00000         1.00000         1.00000         1.00000         1.00000         1.00000         1.00000         1.00000         1.00000    
   4      1.00000         1.00000         1.00000         1.00000         1.00000         1.00000         1.00000         1.00000         1.00000         1.00000    
   5      1.00000         1.00000         1.00000         1.00000         1.00000         1.00000         1.00000         1.00000         1.00000         1.00000    
   6      1.00000         1.00000         1.00000         1.00000         1.00000         1.00000         1.00000         1.00000         1.00000         1.00000    
   7      1.00000         1.00000         1.00000         1.00000         1.00000         1.00000         1.00000         1.00000         1.00000         1.00000    
   8      1.00000         1.00000         1.00000         1.00000         1.00000         1.00000         1.00000         1.00000         1.00000         1.00000    
   9      1.00000         1.00000         1.00000         1.00000         1.00000         1.00000         1.00000         1.00000         1.00000         1.00000    
  10      1.00000         1.00000         1.00000         1.00000         1.00000         1.00000         1.00000         1.00000         1.00000         1.00000    
  11      1.00000         1.00000         1.00000         1.00000         1.00000         1.00000         1.00000         1.00000         1.00000         1.00000    
  12      1.00000         1.00000         1.00000         1.00000         1.00000         1.00000         1.00000         1.00000         1.00000         1.00000    
  13      1.00000         1.00000         1.00000         1.00000         1.00000         1.00000         1.00000         1.00000         1.00000         1.00000    
  14      1.00000         1.00000         1.00000         1.00000         1.00000         1.00000         1.00000         1.00000         1.00000         1.00000    
  15      1.00000         1.00000         1.00000         1.00000         1.00000         1.00000         1.00000         1.00000         1.00000         1.00000    
1
  CONCENTRATION IN LAYER   3 AT END OF TIME STEP  17 IN STRESS PERIOD    2
  ---------------------------------------------------------------------------

                1               2               3               4               5               6               7               8               9              10
 ................................................................................................................................................................
   1      1.00000         1.00000         1.00000         1.00000         1.00000         1.00000         1.00000         1.00000         1.00000         1.00000    
   2      1.00000         1.00000         1.00000         1.00000         1.00000         1.00000         1.00000         1.00000         1.00000         1.00000    
   3      1.00000         1.00000         1.00000         1.00000         1.00000         1.00000         1.00000         1.00000         1.00000         1.00000    
   4      1.00000         1.00000         1.00000         1.00000         1.00000         1.00000         1.00000         1.00000         1.00000         1.00000    
   5      1.00000         1.00000         1.00000         1.00000         1.00000         1.00000         1.00000         1.00000         1.00000         1.00000    
   6      1.00000         1.00000         1.00000         1.00000         1.00000         1.00000         1.00000         1.00000         1.00000         1.00000    
   7      1.00000         1.00000         1.00000         1.00000         1.00000         1.00000         1.00000         1.00000         1.00000         1.00000    
   8      1.00000         1.00000         1.00000         1.00000         1.00000         1.00000         1.00000         1.00000         1.00000         1.00000    
   9      1.00000         1.00000         1.00000         1.00000         1.00000         1.00000         1.00000         1.00000         1.00000         1.00000    
  10      1.00000         1.00000         1.00000         1.00000         1.00000         1.00000         1.00000         1.00000         1.00000         1.00000    
  11      1.00000         1.00000         1.00000         1.00000         1.00000         1.00000         1.00000         1.00000         1.00000         1.00000    
  12      1.00000         1.00000         1.00000         1.00000         1.00000         1.00000         1.00000         1.00000         1.00000         1.00000    
  13      1.00000         1.00000         1.00000         1.00000         1.00000         1.00000         1.00000         1.00000         1.00000         1.00000    
  14      1.00000         1.00000         1.00000         1.00000         1.00000         1.00000         1.00000         1.00000         1.00000         1.00000    
  15      1.00000         1.00000         1.00000         1.00000         1.00000         1.00000         1.00000         1.00000         1.00000         1.00000    

 CONCENTRATION WILL BE SAVED ON UNIT 1030 AT END OF TIME STEP   17, STRESS PERIOD    2


  MASS BUDGET FOR ENTIRE MODEL AT END OF TIME STEP   17, STRESS PERIOD   2
  ---------------------------------------------------------------------------------------------------

     CUMULATIVE MASS      M       RATES FOR THIS TIME STEP      M/T          PACKAGE NAME    
     ------------------                 ------------------------                     ----------------

           IN:                                      IN:
           ---                                      ---
     STORAGE-AQUEOUS =           4.9518       STORAGE-AQUEOUS =           2.0475     MST                              
                 RIV =           0.0000                   RIV =           0.0000     SSM_RIV-1                        
                 CHD =           0.0000                   CHD =           0.0000     SSM_CHD-1                        
                 CNC =           2.0674                   CNC =           0.8524     CNC_0                            

            TOTAL IN =           7.0192              TOTAL IN =           2.8999

          OUT:                                     OUT:
          ----                                     ----
     STORAGE-AQUEOUS =           2.1778       STORAGE-AQUEOUS =           0.8965     MST                              
                 RIV =           0.0000                   RIV =           0.0000     SSM_RIV-1                        
                 CHD =           4.6543                   CHD =           1.9259     SSM_CHD-1                        
                 CNC =           0.1871                   CNC =       7.7438E-02     CNC_0                            

           TOTAL OUT =           7.0192             TOTAL OUT =           2.8999

            IN - OUT =      -6.1846E-10              IN - OUT =       1.9535E-10

 PERCENT DISCREPANCY =          -0.00     PERCENT DISCREPANCY =           0.00




         TIME SUMMARY AT END OF TIME STEP   17 IN STRESS PERIOD    2
                    SECONDS     MINUTES      HOURS       DAYS        YEARS
                    -----------------------------------------------------------
   TIME STEP LENGTH  7200.0      120.00      2.0000     8.33333E-02 2.28154E-04
 STRESS PERIOD TIME 1.22400E+05  2040.0      34.000      1.4167     3.87862E-03
         TOTAL TIME 2.08800E+05  3480.0      58.000      2.4167     6.61647E-03


end timestep


start timestep kper="2" kstp="18" mode="normal"

 UBDSV1 SAVING  STORAGE-AQUEOUS ON UNIT   1029 AT TIME STEP     18, STRESS PERIOD      2
 UBDSV1 SAVING     FLOW-JA-FACE ON UNIT   1029 AT TIME STEP     18, STRESS PERIOD      2
 UBDSV06 SAVING  SOURCE-SINK MIX IN MODEL GWT_RIVERBASE    PACKAGE GWT_RIVERBASE   CONNECTED TO MODEL GWT_RIVERBASE    PACKAGE SSM              ON UNIT   1029 AT TIME STEP     18, STRESS PERIOD      2
 UBDSV06 SAVING              CNC IN MODEL GWT_RIVERBASE    PACKAGE GWT_RIVERBASE   CONNECTED TO MODEL GWT_RIVERBASE    PACKAGE CNC_0            ON UNIT   1029 AT TIME STEP     18, STRESS PERIOD      2
1
  CONCENTRATION IN LAYER   1 AT END OF TIME STEP  18 IN STRESS PERIOD    2
  ---------------------------------------------------------------------------

                1               2               3               4               5               6               7               8               9              10
 ................................................................................................................................................................
   1      1.00000         1.00000         1.00000         1.00000         1.00000         1.00000         1.00000         1.00000         1.00000         1.00000    
   2     0.999995         1.00000        0.999995         1.00000         1.00000         1.00000         1.00000         1.00000         1.00000         1.00000    
   3      1.00000        0.999994         1.00000         1.00000         1.00000         1.00000         1.00000         1.00000         1.00000         1.00000    
   4      1.00000         1.00000        0.999994         1.00000         1.00000         1.00000         1.00000         1.00000         1.00000         1.00000    
   5      1.00000         1.00001         1.00000        0.999994        0.999994         1.00000         1.00000         1.00000         1.00000         1.00000    
   6      1.00001         10.0000         1.00000        0.999994         1.00000        0.999994         1.00000         1.00000         1.00000         1.00000    
   7      1.00001         10.0000         1.00000         1.00000         1.00000         1.00000        0.999994         1.00000         1.00000         1.00000    
   8      1.00000         1.00001         1.00000         1.00000         1.00000         1.00000         1.00000        0.999993        0.999993         1.00000    
   9      1.00000         1.00000         1.00000         1.00000         1.00000         1.00000         1.00000        0.999993         1.00000         1.00000    
  10      1.00000         1.00000         1.00000         1.00000         1.00000         1.00000         1.00000         1.00000         1.00000         1.00000    
  11      1.00000         1.00000         1.00000         1.00000         1.00000         1.00000         1.00000         1.00000         1.00000         1.00000    
  12      1.00000         1.00000         1.00000         1.00000         1.00000         1.00000         1.00000         1.00000         1.00000         1.00000    
  13      1.00000         1.00000         1.00000         1.00000         1.00000         1.00000         1.00000         1.00000         1.00000         1.00000    
  14      1.00000         1.00000         1.00000         1.00000         1.00000         1.00000         1.00000         1.00000         1.00000         1.00000    
  15      1.00000         1.00000         1.00000         1.00000         1.00000         1.00000         1.00000         1.00000         1.00000         1.00000    
1
  CONCENTRATION IN LAYER   2 AT END OF TIME STEP  18 IN STRESS PERIOD    2
  ---------------------------------------------------------------------------

                1               2               3               4               5               6               7               8               9              10
 ................................................................................................................................................................
   1      1.00000         1.00000         1.00000         1.00000         1.00000         1.00000         1.00000         1.00000         1.00000         1.00000    
   2      1.00000         1.00000         1.00000         1.00000         1.00000         1.00000         1.00000         1.00000         1.00000         1.00000    
   3      1.00000         1.00000         1.00000         1.00000         1.00000         1.00000         1.00000         1.00000         1.00000         1.00000    
   4      1.00000         1.00000         1.00000         1.00000         1.00000         1.00000         1.00000         1.00000         1.00000         1.00000    
   5      1.00000         1.00000         1.00000         1.00000         1.00000         1.00000         1.00000         1.00000         1.00000         1.00000    
   6      1.00000         1.00000         1.00000         1.00000         1.00000         1.00000         1.00000         1.00000         1.00000         1.00000    
   7      1.00000         1.00000         1.00000         1.00000         1.00000         1.00000         1.00000         1.00000         1.00000         1.00000    
   8      1.00000         1.00000         1.00000         1.00000         1.00000         1.00000         1.00000         1.00000         1.00000         1.00000    
   9      1.00000         1.00000         1.00000         1.00000         1.00000         1.00000         1.00000         1.00000         1.00000         1.00000    
  10      1.00000         1.00000         1.00000         1.00000         1.00000         1.00000         1.00000         1.00000         1.00000         1.00000    
  11      1.00000         1.00000         1.00000         1.00000         1.00000         1.00000         1.00000         1.00000         1.00000         1.00000    
  12      1.00000         1.00000         1.00000         1.00000         1.00000         1.00000         1.00000         1.00000         1.00000         1.00000    
  13      1.00000         1.00000         1.00000         1.00000         1.00000         1.00000         1.00000         1.00000         1.00000         1.00000    
  14      1.00000         1.00000         1.00000         1.00000         1.00000         1.00000         1.00000         1.00000         1.00000         1.00000    
  15      1.00000         1.00000         1.00000         1.00000         1.00000         1.00000         1.00000         1.00000         1.00000         1.00000    
1
  CONCENTRATION IN LAYER   3 AT END OF TIME STEP  18 IN STRESS PERIOD    2
  ---------------------------------------------------------------------------

                1               2               3               4               5               6               7               8               9              10
 ................................................................................................................................................................
   1      1.00000         1.00000         1.00000         1.00000         1.00000         1.00000         1.00000         1.00000         1.00000         1.00000    
   2      1.00000         1.00000         1.00000         1.00000         1.00000         1.00000         1.00000         1.00000         1.00000         1.00000    
   3      1.00000         1.00000         1.00000         1.00000         1.00000         1.00000         1.00000         1.00000         1.00000         1.00000    
   4      1.00000         1.00000         1.00000         1.00000         1.00000         1.00000         1.00000         1.00000         1.00000         1.00000    
   5      1.00000         1.00000         1.00000         1.00000         1.00000         1.00000         1.00000         1.00000         1.00000         1.00000    
   6      1.00000         1.00000         1.00000         1.00000         1.00000         1.00000         1.00000         1.00000         1.00000         1.00000    
   7      1.00000         1.00000         1.00000         1.00000         1.00000         1.00000         1.00000         1.00000         1.00000         1.00000    
   8      1.00000         1.00000         1.00000         1.00000         1.00000         1.00000         1.00000         1.00000         1.00000         1.00000    
   9      1.00000         1.00000         1.00000         1.00000         1.00000         1.00000         1.00000         1.00000         1.00000         1.00000    
  10      1.00000         1.00000         1.00000         1.00000         1.00000         1.00000         1.00000         1.00000         1.00000         1.00000    
  11      1.00000         1.00000         1.00000         1.00000         1.00000         1.00000         1.00000         1.00000         1.00000         1.00000    
  12      1.00000         1.00000         1.00000         1.00000         1.00000         1.00000         1.00000         1.00000         1.00000         1.00000    
  13      1.00000         1.00000         1.00000         1.00000         1.00000         1.00000         1.00000         1.00000         1.00000         1.00000    
  14      1.00000         1.00000         1.00000         1.00000         1.00000         1.00000         1.00000         1.00000         1.00000         1.00000    
  15      1.00000         1.00000         1.00000         1.00000         1.00000         1.00000         1.00000         1.00000         1.00000         1.00000    

 CONCENTRATION WILL BE SAVED ON UNIT 1030 AT END OF TIME STEP   18, STRESS PERIOD    2


  MASS BUDGET FOR ENTIRE MODEL AT END OF TIME STEP   18, STRESS PERIOD   2
  ---------------------------------------------------------------------------------------------------

     CUMULATIVE MASS      M       RATES FOR THIS TIME STEP      M/T          PACKAGE NAME    
     ------------------                 ------------------------                     ----------------

           IN:                                      IN:
           ---                                      ---
     STORAGE-AQUEOUS =           5.1224       STORAGE-AQUEOUS =           2.0475     MST                              
                 RIV =           0.0000                   RIV =           0.0000     SSM_RIV-1                        
                 CHD =           0.0000                   CHD =           0.0000     SSM_CHD-1                        
                 CNC =           2.1384                   CNC =           0.8524     CNC_0                            

            TOTAL IN =           7.2608              TOTAL IN =           2.8999

          OUT:                                     OUT:
          ----                                     ----
     STORAGE-AQUEOUS =           2.2525       STORAGE-AQUEOUS =           0.8965     MST                              
                 RIV =           0.0000                   RIV =           0.0000     SSM_RIV-1                        
                 CHD =           4.8148                   CHD =           1.9259     SSM_CHD-1                        
                 CNC =           0.1936                   CNC =       7.7438E-02     CNC_0                            

           TOTAL OUT =           7.2608             TOTAL OUT =           2.8999

            IN - OUT =      -5.4254E-10              IN - OUT =       9.1099E-10

 PERCENT DISCREPANCY =          -0.00     PERCENT DISCREPANCY =           0.00




         TIME SUMMARY AT END OF TIME STEP   18 IN STRESS PERIOD    2
                    SECONDS     MINUTES      HOURS       DAYS        YEARS
                    -----------------------------------------------------------
   TIME STEP LENGTH  7200.0      120.00      2.0000     8.33333E-02 2.28154E-04
 STRESS PERIOD TIME 1.29600E+05  2160.0      36.000      1.5000     4.10678E-03
         TOTAL TIME 2.16000E+05  3600.0      60.000      2.5000     6.84463E-03


end timestep


start timestep kper="2" kstp="19" mode="normal"

 UBDSV1 SAVING  STORAGE-AQUEOUS ON UNIT   1029 AT TIME STEP     19, STRESS PERIOD      2
 UBDSV1 SAVING     FLOW-JA-FACE ON UNIT   1029 AT TIME STEP     19, STRESS PERIOD      2
 UBDSV06 SAVING  SOURCE-SINK MIX IN MODEL GWT_RIVERBASE    PACKAGE GWT_RIVERBASE   CONNECTED TO MODEL GWT_RIVERBASE    PACKAGE SSM              ON UNIT   1029 AT TIME STEP     19, STRESS PERIOD      2
 UBDSV06 SAVING              CNC IN MODEL GWT_RIVERBASE    PACKAGE GWT_RIVERBASE   CONNECTED TO MODEL GWT_RIVERBASE    PACKAGE CNC_0            ON UNIT   1029 AT TIME STEP     19, STRESS PERIOD      2
1
  CONCENTRATION IN LAYER   1 AT END OF TIME STEP  19 IN STRESS PERIOD    2
  ---------------------------------------------------------------------------

                1               2               3               4               5               6               7               8               9              10
 ................................................................................................................................................................
   1      1.00000         1.00000         1.00000         1.00000         1.00000         1.00000         1.00000         1.00000         1.00000         1.00000    
   2     0.999995         1.00000        0.999994         1.00000         1.00000         1.00000         1.00000         1.00000         1.00000         1.00000    
   3      1.00000        0.999994         1.00000         1.00000         1.00000         1.00000         1.00000         1.00000         1.00000         1.00000    
   4      1.00000         1.00000        0.999994         1.00000         1.00000         1.00000         1.00000         1.00000         1.00000         1.00000    
   5      1.00000         1.00001         1.00000        0.999994        0.999994         1.00000         1.00000         1.00000         1.00000         1.00000    
   6      1.00001         10.0000         1.00000        0.999994         1.00000        0.999994         1.00000         1.00000         1.00000         1.00000    
   7      1.00001         10.0000         1.00000         1.00000         1.00000         1.00000        0.999993         1.00000         1.00000         1.00000    
   8      1.00000         1.00001         1.00000         1.00000         1.00000         1.00000         1.00000        0.999993        0.999993         1.00000    
   9      1.00000         1.00000         1.00000         1.00000         1.00000         1.00000         1.00000        0.999993         1.00000         1.00000    
  10      1.00000         1.00000         1.00000         1.00000         1.00000         1.00000         1.00000         1.00000         1.00000         1.00000    
  11      1.00000         1.00000         1.00000         1.00000         1.00000         1.00000         1.00000         1.00000         1.00000         1.00000    
  12      1.00000         1.00000         1.00000         1.00000         1.00000         1.00000         1.00000         1.00000         1.00000         1.00000    
  13      1.00000         1.00000         1.00000         1.00000         1.00000         1.00000         1.00000         1.00000         1.00000         1.00000    
  14      1.00000         1.00000         1.00000         1.00000         1.00000         1.00000         1.00000         1.00000         1.00000         1.00000    
  15      1.00000         1.00000         1.00000         1.00000         1.00000         1.00000         1.00000         1.00000         1.00000         1.00000    
1
  CONCENTRATION IN LAYER   2 AT END OF TIME STEP  19 IN STRESS PERIOD    2
  ---------------------------------------------------------------------------

                1               2               3               4               5               6               7               8               9              10
 ................................................................................................................................................................
   1      1.00000         1.00000         1.00000         1.00000         1.00000         1.00000         1.00000         1.00000         1.00000         1.00000    
   2      1.00000         1.00000         1.00000         1.00000         1.00000         1.00000         1.00000         1.00000         1.00000         1.00000    
   3      1.00000         1.00000         1.00000         1.00000         1.00000         1.00000         1.00000         1.00000         1.00000         1.00000    
   4      1.00000         1.00000         1.00000         1.00000         1.00000         1.00000         1.00000         1.00000         1.00000         1.00000    
   5      1.00000         1.00000         1.00000         1.00000         1.00000         1.00000         1.00000         1.00000         1.00000         1.00000    
   6      1.00000         1.00000         1.00000         1.00000         1.00000         1.00000         1.00000         1.00000         1.00000         1.00000    
   7      1.00000         1.00000         1.00000         1.00000         1.00000         1.00000         1.00000         1.00000         1.00000         1.00000    
   8      1.00000         1.00000         1.00000         1.00000         1.00000         1.00000         1.00000         1.00000         1.00000         1.00000    
   9      1.00000         1.00000         1.00000         1.00000         1.00000         1.00000         1.00000         1.00000         1.00000         1.00000    
  10      1.00000         1.00000         1.00000         1.00000         1.00000         1.00000         1.00000         1.00000         1.00000         1.00000    
  11      1.00000         1.00000         1.00000         1.00000         1.00000         1.00000         1.00000         1.00000         1.00000         1.00000    
  12      1.00000         1.00000         1.00000         1.00000         1.00000         1.00000         1.00000         1.00000         1.00000         1.00000    
  13      1.00000         1.00000         1.00000         1.00000         1.00000         1.00000         1.00000         1.00000         1.00000         1.00000    
  14      1.00000         1.00000         1.00000         1.00000         1.00000         1.00000         1.00000         1.00000         1.00000         1.00000    
  15      1.00000         1.00000         1.00000         1.00000         1.00000         1.00000         1.00000         1.00000         1.00000         1.00000    
1
  CONCENTRATION IN LAYER   3 AT END OF TIME STEP  19 IN STRESS PERIOD    2
  ---------------------------------------------------------------------------

                1               2               3               4               5               6               7               8               9              10
 ................................................................................................................................................................
   1      1.00000         1.00000         1.00000         1.00000         1.00000         1.00000         1.00000         1.00000         1.00000         1.00000    
   2      1.00000         1.00000         1.00000         1.00000         1.00000         1.00000         1.00000         1.00000         1.00000         1.00000    
   3      1.00000         1.00000         1.00000         1.00000         1.00000         1.00000         1.00000         1.00000         1.00000         1.00000    
   4      1.00000         1.00000         1.00000         1.00000         1.00000         1.00000         1.00000         1.00000         1.00000         1.00000    
   5      1.00000         1.00000         1.00000         1.00000         1.00000         1.00000         1.00000         1.00000         1.00000         1.00000    
   6      1.00000         1.00000         1.00000         1.00000         1.00000         1.00000         1.00000         1.00000         1.00000         1.00000    
   7      1.00000         1.00000         1.00000         1.00000         1.00000         1.00000         1.00000         1.00000         1.00000         1.00000    
   8      1.00000         1.00000         1.00000         1.00000         1.00000         1.00000         1.00000         1.00000         1.00000         1.00000    
   9      1.00000         1.00000         1.00000         1.00000         1.00000         1.00000         1.00000         1.00000         1.00000         1.00000    
  10      1.00000         1.00000         1.00000         1.00000         1.00000         1.00000         1.00000         1.00000         1.00000         1.00000    
  11      1.00000         1.00000         1.00000         1.00000         1.00000         1.00000         1.00000         1.00000         1.00000         1.00000    
  12      1.00000         1.00000         1.00000         1.00000         1.00000         1.00000         1.00000         1.00000         1.00000         1.00000    
  13      1.00000         1.00000         1.00000         1.00000         1.00000         1.00000         1.00000         1.00000         1.00000         1.00000    
  14      1.00000         1.00000         1.00000         1.00000         1.00000         1.00000         1.00000         1.00000         1.00000         1.00000    
  15      1.00000         1.00000         1.00000         1.00000         1.00000         1.00000         1.00000         1.00000         1.00000         1.00000    

 CONCENTRATION WILL BE SAVED ON UNIT 1030 AT END OF TIME STEP   19, STRESS PERIOD    2


  MASS BUDGET FOR ENTIRE MODEL AT END OF TIME STEP   19, STRESS PERIOD   2
  ---------------------------------------------------------------------------------------------------

     CUMULATIVE MASS      M       RATES FOR THIS TIME STEP      M/T          PACKAGE NAME    
     ------------------                 ------------------------                     ----------------

           IN:                                      IN:
           ---                                      ---
     STORAGE-AQUEOUS =           5.2931       STORAGE-AQUEOUS =           2.0475     MST                              
                 RIV =           0.0000                   RIV =           0.0000     SSM_RIV-1                        
                 CHD =           0.0000                   CHD =           0.0000     SSM_CHD-1                        
                 CNC =           2.2094                   CNC =           0.8524     CNC_0                            

            TOTAL IN =           7.5025              TOTAL IN =           2.8999

          OUT:                                     OUT:
          ----                                     ----
     STORAGE-AQUEOUS =           2.3272       STORAGE-AQUEOUS =           0.8965     MST                              
                 RIV =           0.0000                   RIV =           0.0000     SSM_RIV-1                        
                 CHD =           4.9753                   CHD =           1.9259     SSM_CHD-1                        
                 CNC =           0.2001                   CNC =       7.7437E-02     CNC_0                            

           TOTAL OUT =           7.5025             TOTAL OUT =           2.8999

            IN - OUT =      -4.5308E-10              IN - OUT =       1.0736E-09

 PERCENT DISCREPANCY =          -0.00     PERCENT DISCREPANCY =           0.00




         TIME SUMMARY AT END OF TIME STEP   19 IN STRESS PERIOD    2
                    SECONDS     MINUTES      HOURS       DAYS        YEARS
                    -----------------------------------------------------------
   TIME STEP LENGTH  7200.0      120.00      2.0000     8.33333E-02 2.28154E-04
 STRESS PERIOD TIME 1.36800E+05  2280.0      38.000      1.5833     4.33493E-03
         TOTAL TIME 2.23200E+05  3720.0      62.000      2.5833     7.07278E-03


end timestep


start timestep kper="2" kstp="20" mode="normal"

 UBDSV1 SAVING  STORAGE-AQUEOUS ON UNIT   1029 AT TIME STEP     20, STRESS PERIOD      2
 UBDSV1 SAVING     FLOW-JA-FACE ON UNIT   1029 AT TIME STEP     20, STRESS PERIOD      2
 UBDSV06 SAVING  SOURCE-SINK MIX IN MODEL GWT_RIVERBASE    PACKAGE GWT_RIVERBASE   CONNECTED TO MODEL GWT_RIVERBASE    PACKAGE SSM              ON UNIT   1029 AT TIME STEP     20, STRESS PERIOD      2
 UBDSV06 SAVING              CNC IN MODEL GWT_RIVERBASE    PACKAGE GWT_RIVERBASE   CONNECTED TO MODEL GWT_RIVERBASE    PACKAGE CNC_0            ON UNIT   1029 AT TIME STEP     20, STRESS PERIOD      2
1
  CONCENTRATION IN LAYER   1 AT END OF TIME STEP  20 IN STRESS PERIOD    2
  ---------------------------------------------------------------------------

                1               2               3               4               5               6               7               8               9              10
 ................................................................................................................................................................
   1      1.00000         1.00000         1.00000         1.00000         1.00000         1.00000         1.00000         1.00000         1.00000         1.00000    
   2     0.999994         1.00000        0.999994         1.00000         1.00000         1.00000         1.00000         1.00000         1.00000         1.00000    
   3      1.00000        0.999994         1.00000         1.00000         1.00000         1.00000         1.00000         1.00000         1.00000         1.00000    
   4      1.00000         1.00000        0.999994         1.00000         1.00000         1.00000         1.00000         1.00000         1.00000         1.00000    
   5      1.00000         1.00001         1.00000        0.999994        0.999993         1.00000         1.00000         1.00000         1.00000         1.00000    
   6      1.00001         10.0000         1.00000        0.999994         1.00000        0.999993         1.00000         1.00000         1.00000         1.00000    
   7      1.00001         10.0000         1.00000         1.00000         1.00000         1.00000        0.999993         1.00000         1.00000         1.00000    
   8      1.00000         1.00001         1.00000         1.00000         1.00000         1.00000         1.00000        0.999993        0.999993         1.00000    
   9      1.00000         1.00000         1.00000         1.00000         1.00000         1.00000         1.00000        0.999993         1.00000         1.00000    
  10      1.00000         1.00000         1.00000         1.00000         1.00000         1.00000         1.00000         1.00000         1.00000         1.00000    
  11      1.00000         1.00000         1.00000         1.00000         1.00000         1.00000         1.00000         1.00000         1.00000         1.00000    
  12      1.00000         1.00000         1.00000         1.00000         1.00000         1.00000         1.00000         1.00000         1.00000         1.00000    
  13      1.00000         1.00000         1.00000         1.00000         1.00000         1.00000         1.00000         1.00000         1.00000         1.00000    
  14      1.00000         1.00000         1.00000         1.00000         1.00000         1.00000         1.00000         1.00000         1.00000         1.00000    
  15      1.00000         1.00000         1.00000         1.00000         1.00000         1.00000         1.00000         1.00000         1.00000         1.00000    
1
  CONCENTRATION IN LAYER   2 AT END OF TIME STEP  20 IN STRESS PERIOD    2
  ---------------------------------------------------------------------------

                1               2               3               4               5               6               7               8               9              10
 ................................................................................................................................................................
   1      1.00000         1.00000         1.00000         1.00000         1.00000         1.00000         1.00000         1.00000         1.00000         1.00000    
   2      1.00000         1.00000         1.00000         1.00000         1.00000         1.00000         1.00000         1.00000         1.00000         1.00000    
   3      1.00000         1.00000         1.00000         1.00000         1.00000         1.00000         1.00000         1.00000         1.00000         1.00000    
   4      1.00000         1.00000         1.00000         1.00000         1.00000         1.00000         1.00000         1.00000         1.00000         1.00000    
   5      1.00000         1.00000         1.00000         1.00000         1.00000         1.00000         1.00000         1.00000         1.00000         1.00000    
   6      1.00000         1.00000         1.00000         1.00000         1.00000         1.00000         1.00000         1.00000         1.00000         1.00000    
   7      1.00000         1.00000         1.00000         1.00000         1.00000         1.00000         1.00000         1.00000         1.00000         1.00000    
   8      1.00000         1.00000         1.00000         1.00000         1.00000         1.00000         1.00000         1.00000         1.00000         1.00000    
   9      1.00000         1.00000         1.00000         1.00000         1.00000         1.00000         1.00000         1.00000         1.00000         1.00000    
  10      1.00000         1.00000         1.00000         1.00000         1.00000         1.00000         1.00000         1.00000         1.00000         1.00000    
  11      1.00000         1.00000         1.00000         1.00000         1.00000         1.00000         1.00000         1.00000         1.00000         1.00000    
  12      1.00000         1.00000         1.00000         1.00000         1.00000         1.00000         1.00000         1.00000         1.00000         1.00000    
  13      1.00000         1.00000         1.00000         1.00000         1.00000         1.00000         1.00000         1.00000         1.00000         1.00000    
  14      1.00000         1.00000         1.00000         1.00000         1.00000         1.00000         1.00000         1.00000         1.00000         1.00000    
  15      1.00000         1.00000         1.00000         1.00000         1.00000         1.00000         1.00000         1.00000         1.00000         1.00000    
1
  CONCENTRATION IN LAYER   3 AT END OF TIME STEP  20 IN STRESS PERIOD    2
  ---------------------------------------------------------------------------

                1               2               3               4               5               6               7               8               9              10
 ................................................................................................................................................................
   1      1.00000         1.00000         1.00000         1.00000         1.00000         1.00000         1.00000         1.00000         1.00000         1.00000    
   2      1.00000         1.00000         1.00000         1.00000         1.00000         1.00000         1.00000         1.00000         1.00000         1.00000    
   3      1.00000         1.00000         1.00000         1.00000         1.00000         1.00000         1.00000         1.00000         1.00000         1.00000    
   4      1.00000         1.00000         1.00000         1.00000         1.00000         1.00000         1.00000         1.00000         1.00000         1.00000    
   5      1.00000         1.00000         1.00000         1.00000         1.00000         1.00000         1.00000         1.00000         1.00000         1.00000    
   6      1.00000         1.00000         1.00000         1.00000         1.00000         1.00000         1.00000         1.00000         1.00000         1.00000    
   7      1.00000         1.00000         1.00000         1.00000         1.00000         1.00000         1.00000         1.00000         1.00000         1.00000    
   8      1.00000         1.00000         1.00000         1.00000         1.00000         1.00000         1.00000         1.00000         1.00000         1.00000    
   9      1.00000         1.00000         1.00000         1.00000         1.00000         1.00000         1.00000         1.00000         1.00000         1.00000    
  10      1.00000         1.00000         1.00000         1.00000         1.00000         1.00000         1.00000         1.00000         1.00000         1.00000    
  11      1.00000         1.00000         1.00000         1.00000         1.00000         1.00000         1.00000         1.00000         1.00000         1.00000    
  12      1.00000         1.00000         1.00000         1.00000         1.00000         1.00000         1.00000         1.00000         1.00000         1.00000    
  13      1.00000         1.00000         1.00000         1.00000         1.00000         1.00000         1.00000         1.00000         1.00000         1.00000    
  14      1.00000         1.00000         1.00000         1.00000         1.00000         1.00000         1.00000         1.00000         1.00000         1.00000    
  15      1.00000         1.00000         1.00000         1.00000         1.00000         1.00000         1.00000         1.00000         1.00000         1.00000    

 CONCENTRATION WILL BE SAVED ON UNIT 1030 AT END OF TIME STEP   20, STRESS PERIOD    2


  MASS BUDGET FOR ENTIRE MODEL AT END OF TIME STEP   20, STRESS PERIOD   2
  ---------------------------------------------------------------------------------------------------

     CUMULATIVE MASS      M       RATES FOR THIS TIME STEP      M/T          PACKAGE NAME    
     ------------------                 ------------------------                     ----------------

           IN:                                      IN:
           ---                                      ---
     STORAGE-AQUEOUS =           5.4637       STORAGE-AQUEOUS =           2.0475     MST                              
                 RIV =           0.0000                   RIV =           0.0000     SSM_RIV-1                        
                 CHD =           0.0000                   CHD =           0.0000     SSM_CHD-1                        
                 CNC =           2.2805                   CNC =           0.8524     CNC_0                            

            TOTAL IN =           7.7442              TOTAL IN =           2.8999

          OUT:                                     OUT:
          ----                                     ----
     STORAGE-AQUEOUS =           2.4019       STORAGE-AQUEOUS =           0.8965     MST                              
                 RIV =           0.0000                   RIV =           0.0000     SSM_RIV-1                        
                 CHD =           5.1358                   CHD =           1.9259     SSM_CHD-1                        
                 CNC =           0.2065                   CNC =       7.7437E-02     CNC_0                            

           TOTAL OUT =           7.7442             TOTAL OUT =           2.8999

            IN - OUT =      -5.5103E-10              IN - OUT =      -1.1755E-09

 PERCENT DISCREPANCY =          -0.00     PERCENT DISCREPANCY =          -0.00




         TIME SUMMARY AT END OF TIME STEP   20 IN STRESS PERIOD    2
                    SECONDS     MINUTES      HOURS       DAYS        YEARS
                    -----------------------------------------------------------
   TIME STEP LENGTH  7200.0      120.00      2.0000     8.33333E-02 2.28154E-04
 STRESS PERIOD TIME 1.44000E+05  2400.0      40.000      1.6667     4.56308E-03
         TOTAL TIME 2.30400E+05  3840.0      64.000      2.6667     7.30094E-03


end timestep


start timestep kper="2" kstp="21" mode="normal"

 UBDSV1 SAVING  STORAGE-AQUEOUS ON UNIT   1029 AT TIME STEP     21, STRESS PERIOD      2
 UBDSV1 SAVING     FLOW-JA-FACE ON UNIT   1029 AT TIME STEP     21, STRESS PERIOD      2
 UBDSV06 SAVING  SOURCE-SINK MIX IN MODEL GWT_RIVERBASE    PACKAGE GWT_RIVERBASE   CONNECTED TO MODEL GWT_RIVERBASE    PACKAGE SSM              ON UNIT   1029 AT TIME STEP     21, STRESS PERIOD      2
 UBDSV06 SAVING              CNC IN MODEL GWT_RIVERBASE    PACKAGE GWT_RIVERBASE   CONNECTED TO MODEL GWT_RIVERBASE    PACKAGE CNC_0            ON UNIT   1029 AT TIME STEP     21, STRESS PERIOD      2
1
  CONCENTRATION IN LAYER   1 AT END OF TIME STEP  21 IN STRESS PERIOD    2
  ---------------------------------------------------------------------------

                1               2               3               4               5               6               7               8               9              10
 ................................................................................................................................................................
   1      1.00000         1.00000         1.00000         1.00000         1.00000         1.00000         1.00000         1.00000         1.00000         1.00000    
   2     0.999994         1.00000        0.999994         1.00000         1.00000         1.00000         1.00000         1.00000         1.00000         1.00000    
   3      1.00000        0.999994         1.00000         1.00000         1.00000         1.00000         1.00000         1.00000         1.00000         1.00000    
   4      1.00000         1.00000        0.999994         1.00000         1.00000         1.00000         1.00000         1.00000         1.00000         1.00000    
   5      1.00000         1.00001         1.00000        0.999994        0.999993         1.00000         1.00000         1.00000         1.00000         1.00000    
   6      1.00001         10.0000         1.00000        0.999993         1.00000        0.999993         1.00000         1.00000         1.00000         1.00000    
   7      1.00001         10.0000         1.00000         1.00000         1.00000         1.00000        0.999993         1.00000         1.00000         1.00000    
   8      1.00000         1.00001         1.00000         1.00000         1.00000         1.00000         1.00000        0.999993        0.999992         1.00000    
   9      1.00000         1.00000         1.00000         1.00000         1.00000         1.00000         1.00000        0.999993         1.00000         1.00000    
  10      1.00000         1.00000         1.00000         1.00000         1.00000         1.00000         1.00000         1.00000         1.00000         1.00000    
  11      1.00000         1.00000         1.00000         1.00000         1.00000         1.00000         1.00000         1.00000         1.00000         1.00000    
  12      1.00000         1.00000         1.00000         1.00000         1.00000         1.00000         1.00000         1.00000         1.00000         1.00000    
  13      1.00000         1.00000         1.00000         1.00000         1.00000         1.00000         1.00000         1.00000         1.00000         1.00000    
  14      1.00000         1.00000         1.00000         1.00000         1.00000         1.00000         1.00000         1.00000         1.00000         1.00000    
  15      1.00000         1.00000         1.00000         1.00000         1.00000         1.00000         1.00000         1.00000         1.00000         1.00000    
1
  CONCENTRATION IN LAYER   2 AT END OF TIME STEP  21 IN STRESS PERIOD    2
  ---------------------------------------------------------------------------

                1               2               3               4               5               6               7               8               9              10
 ................................................................................................................................................................
   1      1.00000         1.00000         1.00000         1.00000         1.00000         1.00000         1.00000         1.00000         1.00000         1.00000    
   2      1.00000         1.00000         1.00000         1.00000         1.00000         1.00000         1.00000         1.00000         1.00000         1.00000    
   3      1.00000         1.00000         1.00000         1.00000         1.00000         1.00000         1.00000         1.00000         1.00000         1.00000    
   4      1.00000         1.00000         1.00000         1.00000         1.00000         1.00000         1.00000         1.00000         1.00000         1.00000    
   5      1.00000         1.00000         1.00000         1.00000         1.00000         1.00000         1.00000         1.00000         1.00000         1.00000    
   6      1.00000         1.00000         1.00000         1.00000         1.00000         1.00000         1.00000         1.00000         1.00000         1.00000    
   7      1.00000         1.00000         1.00000         1.00000         1.00000         1.00000         1.00000         1.00000         1.00000         1.00000    
   8      1.00000         1.00000         1.00000         1.00000         1.00000         1.00000         1.00000         1.00000         1.00000         1.00000    
   9      1.00000         1.00000         1.00000         1.00000         1.00000         1.00000         1.00000         1.00000         1.00000         1.00000    
  10      1.00000         1.00000         1.00000         1.00000         1.00000         1.00000         1.00000         1.00000         1.00000         1.00000    
  11      1.00000         1.00000         1.00000         1.00000         1.00000         1.00000         1.00000         1.00000         1.00000         1.00000    
  12      1.00000         1.00000         1.00000         1.00000         1.00000         1.00000         1.00000         1.00000         1.00000         1.00000    
  13      1.00000         1.00000         1.00000         1.00000         1.00000         1.00000         1.00000         1.00000         1.00000         1.00000    
  14      1.00000         1.00000         1.00000         1.00000         1.00000         1.00000         1.00000         1.00000         1.00000         1.00000    
  15      1.00000         1.00000         1.00000         1.00000         1.00000         1.00000         1.00000         1.00000         1.00000         1.00000    
1
  CONCENTRATION IN LAYER   3 AT END OF TIME STEP  21 IN STRESS PERIOD    2
  ---------------------------------------------------------------------------

                1               2               3               4               5               6               7               8               9              10
 ................................................................................................................................................................
   1      1.00000         1.00000         1.00000         1.00000         1.00000         1.00000         1.00000         1.00000         1.00000         1.00000    
   2      1.00000         1.00000         1.00000         1.00000         1.00000         1.00000         1.00000         1.00000         1.00000         1.00000    
   3      1.00000         1.00000         1.00000         1.00000         1.00000         1.00000         1.00000         1.00000         1.00000         1.00000    
   4      1.00000         1.00000         1.00000         1.00000         1.00000         1.00000         1.00000         1.00000         1.00000         1.00000    
   5      1.00000         1.00000         1.00000         1.00000         1.00000         1.00000         1.00000         1.00000         1.00000         1.00000    
   6      1.00000         1.00000         1.00000         1.00000         1.00000         1.00000         1.00000         1.00000         1.00000         1.00000    
   7      1.00000         1.00000         1.00000         1.00000         1.00000         1.00000         1.00000         1.00000         1.00000         1.00000    
   8      1.00000         1.00000         1.00000         1.00000         1.00000         1.00000         1.00000         1.00000         1.00000         1.00000    
   9      1.00000         1.00000         1.00000         1.00000         1.00000         1.00000         1.00000         1.00000         1.00000         1.00000    
  10      1.00000         1.00000         1.00000         1.00000         1.00000         1.00000         1.00000         1.00000         1.00000         1.00000    
  11      1.00000         1.00000         1.00000         1.00000         1.00000         1.00000         1.00000         1.00000         1.00000         1.00000    
  12      1.00000         1.00000         1.00000         1.00000         1.00000         1.00000         1.00000         1.00000         1.00000         1.00000    
  13      1.00000         1.00000         1.00000         1.00000         1.00000         1.00000         1.00000         1.00000         1.00000         1.00000    
  14      1.00000         1.00000         1.00000         1.00000         1.00000         1.00000         1.00000         1.00000         1.00000         1.00000    
  15      1.00000         1.00000         1.00000         1.00000         1.00000         1.00000         1.00000         1.00000         1.00000         1.00000    

 CONCENTRATION WILL BE SAVED ON UNIT 1030 AT END OF TIME STEP   21, STRESS PERIOD    2


  MASS BUDGET FOR ENTIRE MODEL AT END OF TIME STEP   21, STRESS PERIOD   2
  ---------------------------------------------------------------------------------------------------

     CUMULATIVE MASS      M       RATES FOR THIS TIME STEP      M/T          PACKAGE NAME    
     ------------------                 ------------------------                     ----------------

           IN:                                      IN:
           ---                                      ---
     STORAGE-AQUEOUS =           5.6343       STORAGE-AQUEOUS =           2.0475     MST                              
                 RIV =           0.0000                   RIV =           0.0000     SSM_RIV-1                        
                 CHD =           0.0000                   CHD =           0.0000     SSM_CHD-1                        
                 CNC =           2.3515                   CNC =           0.8524     CNC_0                            

            TOTAL IN =           7.9858              TOTAL IN =           2.8999

          OUT:                                     OUT:
          ----                                     ----
     STORAGE-AQUEOUS =           2.4766       STORAGE-AQUEOUS =           0.8965     MST                              
                 RIV =           0.0000                   RIV =           0.0000     SSM_RIV-1                        
                 CHD =           5.2963                   CHD =           1.9259     SSM_CHD-1                        
                 CNC =           0.2130                   CNC =       7.7437E-02     CNC_0                            

           TOTAL OUT =           7.9858             TOTAL OUT =           2.8999

            IN - OUT =      -3.7253E-10              IN - OUT =       2.1421E-09

 PERCENT DISCREPANCY =          -0.00     PERCENT DISCREPANCY =           0.00




         TIME SUMMARY AT END OF TIME STEP   21 IN STRESS PERIOD    2
                    SECONDS     MINUTES      HOURS       DAYS        YEARS
                    -----------------------------------------------------------
   TIME STEP LENGTH  7200.0      120.00      2.0000     8.33333E-02 2.28154E-04
 STRESS PERIOD TIME 1.51200E+05  2520.0      42.000      1.7500     4.79124E-03
         TOTAL TIME 2.37600E+05  3960.0      66.000      2.7500     7.52909E-03


end timestep


start timestep kper="2" kstp="22" mode="normal"

 UBDSV1 SAVING  STORAGE-AQUEOUS ON UNIT   1029 AT TIME STEP     22, STRESS PERIOD      2
 UBDSV1 SAVING     FLOW-JA-FACE ON UNIT   1029 AT TIME STEP     22, STRESS PERIOD      2
 UBDSV06 SAVING  SOURCE-SINK MIX IN MODEL GWT_RIVERBASE    PACKAGE GWT_RIVERBASE   CONNECTED TO MODEL GWT_RIVERBASE    PACKAGE SSM              ON UNIT   1029 AT TIME STEP     22, STRESS PERIOD      2
 UBDSV06 SAVING              CNC IN MODEL GWT_RIVERBASE    PACKAGE GWT_RIVERBASE   CONNECTED TO MODEL GWT_RIVERBASE    PACKAGE CNC_0            ON UNIT   1029 AT TIME STEP     22, STRESS PERIOD      2
1
  CONCENTRATION IN LAYER   1 AT END OF TIME STEP  22 IN STRESS PERIOD    2
  ---------------------------------------------------------------------------

                1               2               3               4               5               6               7               8               9              10
 ................................................................................................................................................................
   1      1.00000         1.00000         1.00000         1.00000         1.00000         1.00000         1.00000         1.00000         1.00000         1.00000    
   2     0.999994         1.00000        0.999994         1.00000         1.00000         1.00000         1.00000         1.00000         1.00000         1.00000    
   3      1.00000        0.999994         1.00000         1.00000         1.00000         1.00000         1.00000         1.00000         1.00000         1.00000    
   4      1.00000         1.00000        0.999994         1.00000         1.00000         1.00000         1.00000         1.00000         1.00000         1.00000    
   5      1.00000         1.00001         1.00000        0.999993        0.999993         1.00000         1.00000         1.00000         1.00000         1.00000    
   6      1.00001         10.0000         1.00000        0.999993         1.00000        0.999993         1.00000         1.00000         1.00000         1.00000    
   7      1.00001         10.0000         1.00000         1.00000         1.00000         1.00000        0.999993         1.00000         1.00000         1.00000    
   8      1.00000         1.00001         1.00000         1.00000         1.00000         1.00000         1.00000        0.999993        0.999992         1.00000    
   9      1.00000         1.00000         1.00000         1.00000         1.00000         1.00000         1.00000        0.999992         1.00000         1.00000    
  10      1.00000         1.00000         1.00000         1.00000         1.00000         1.00000         1.00000         1.00000         1.00000         1.00000    
  11      1.00000         1.00000         1.00000         1.00000         1.00000         1.00000         1.00000         1.00000         1.00000         1.00000    
  12      1.00000         1.00000         1.00000         1.00000         1.00000         1.00000         1.00000         1.00000         1.00000         1.00000    
  13      1.00000         1.00000         1.00000         1.00000         1.00000         1.00000         1.00000         1.00000         1.00000         1.00000    
  14      1.00000         1.00000         1.00000         1.00000         1.00000         1.00000         1.00000         1.00000         1.00000         1.00000    
  15      1.00000         1.00000         1.00000         1.00000         1.00000         1.00000         1.00000         1.00000         1.00000         1.00000    
1
  CONCENTRATION IN LAYER   2 AT END OF TIME STEP  22 IN STRESS PERIOD    2
  ---------------------------------------------------------------------------

                1               2               3               4               5               6               7               8               9              10
 ................................................................................................................................................................
   1      1.00000         1.00000         1.00000         1.00000         1.00000         1.00000         1.00000         1.00000         1.00000         1.00000    
   2      1.00000         1.00000         1.00000         1.00000         1.00000         1.00000         1.00000         1.00000         1.00000         1.00000    
   3      1.00000         1.00000         1.00000         1.00000         1.00000         1.00000         1.00000         1.00000         1.00000         1.00000    
   4      1.00000         1.00000         1.00000         1.00000         1.00000         1.00000         1.00000         1.00000         1.00000         1.00000    
   5      1.00000         1.00000         1.00000         1.00000         1.00000         1.00000         1.00000         1.00000         1.00000         1.00000    
   6      1.00000         1.00000         1.00000         1.00000         1.00000         1.00000         1.00000         1.00000         1.00000         1.00000    
   7      1.00000         1.00000         1.00000         1.00000         1.00000         1.00000         1.00000         1.00000         1.00000         1.00000    
   8      1.00000         1.00000         1.00000         1.00000         1.00000         1.00000         1.00000         1.00000         1.00000         1.00000    
   9      1.00000         1.00000         1.00000         1.00000         1.00000         1.00000         1.00000         1.00000         1.00000         1.00000    
  10      1.00000         1.00000         1.00000         1.00000         1.00000         1.00000         1.00000         1.00000         1.00000         1.00000    
  11      1.00000         1.00000         1.00000         1.00000         1.00000         1.00000         1.00000         1.00000         1.00000         1.00000    
  12      1.00000         1.00000         1.00000         1.00000         1.00000         1.00000         1.00000         1.00000         1.00000         1.00000    
  13      1.00000         1.00000         1.00000         1.00000         1.00000         1.00000         1.00000         1.00000         1.00000         1.00000    
  14      1.00000         1.00000         1.00000         1.00000         1.00000         1.00000         1.00000         1.00000         1.00000         1.00000    
  15      1.00000         1.00000         1.00000         1.00000         1.00000         1.00000         1.00000         1.00000         1.00000         1.00000    
1
  CONCENTRATION IN LAYER   3 AT END OF TIME STEP  22 IN STRESS PERIOD    2
  ---------------------------------------------------------------------------

                1               2               3               4               5               6               7               8               9              10
 ................................................................................................................................................................
   1      1.00000         1.00000         1.00000         1.00000         1.00000         1.00000         1.00000         1.00000         1.00000         1.00000    
   2      1.00000         1.00000         1.00000         1.00000         1.00000         1.00000         1.00000         1.00000         1.00000         1.00000    
   3      1.00000         1.00000         1.00000         1.00000         1.00000         1.00000         1.00000         1.00000         1.00000         1.00000    
   4      1.00000         1.00000         1.00000         1.00000         1.00000         1.00000         1.00000         1.00000         1.00000         1.00000    
   5      1.00000         1.00000         1.00000         1.00000         1.00000         1.00000         1.00000         1.00000         1.00000         1.00000    
   6      1.00000         1.00000         1.00000         1.00000         1.00000         1.00000         1.00000         1.00000         1.00000         1.00000    
   7      1.00000         1.00000         1.00000         1.00000         1.00000         1.00000         1.00000         1.00000         1.00000         1.00000    
   8      1.00000         1.00000         1.00000         1.00000         1.00000         1.00000         1.00000         1.00000         1.00000         1.00000    
   9      1.00000         1.00000         1.00000         1.00000         1.00000         1.00000         1.00000         1.00000         1.00000         1.00000    
  10      1.00000         1.00000         1.00000         1.00000         1.00000         1.00000         1.00000         1.00000         1.00000         1.00000    
  11      1.00000         1.00000         1.00000         1.00000         1.00000         1.00000         1.00000         1.00000         1.00000         1.00000    
  12      1.00000         1.00000         1.00000         1.00000         1.00000         1.00000         1.00000         1.00000         1.00000         1.00000    
  13      1.00000         1.00000         1.00000         1.00000         1.00000         1.00000         1.00000         1.00000         1.00000         1.00000    
  14      1.00000         1.00000         1.00000         1.00000         1.00000         1.00000         1.00000         1.00000         1.00000         1.00000    
  15      1.00000         1.00000         1.00000         1.00000         1.00000         1.00000         1.00000         1.00000         1.00000         1.00000    

 CONCENTRATION WILL BE SAVED ON UNIT 1030 AT END OF TIME STEP   22, STRESS PERIOD    2


  MASS BUDGET FOR ENTIRE MODEL AT END OF TIME STEP   22, STRESS PERIOD   2
  ---------------------------------------------------------------------------------------------------

     CUMULATIVE MASS      M       RATES FOR THIS TIME STEP      M/T          PACKAGE NAME    
     ------------------                 ------------------------                     ----------------

           IN:                                      IN:
           ---                                      ---
     STORAGE-AQUEOUS =           5.8049       STORAGE-AQUEOUS =           2.0475     MST                              
                 RIV =           0.0000                   RIV =           0.0000     SSM_RIV-1                        
                 CHD =           0.0000                   CHD =           0.0000     SSM_CHD-1                        
                 CNC =           2.4225                   CNC =           0.8524     CNC_0                            

            TOTAL IN =           8.2275              TOTAL IN =           2.8999

          OUT:                                     OUT:
          ----                                     ----
     STORAGE-AQUEOUS =           2.5513       STORAGE-AQUEOUS =           0.8965     MST                              
                 RIV =           0.0000                   RIV =           0.0000     SSM_RIV-1                        
                 CHD =           5.4568                   CHD =           1.9259     SSM_CHD-1                        
                 CNC =           0.2194                   CNC =       7.7437E-02     CNC_0                            

           TOTAL OUT =           8.2275             TOTAL OUT =           2.8999

            IN - OUT =      -3.8708E-10              IN - OUT =      -1.7467E-10

 PERCENT DISCREPANCY =          -0.00     PERCENT DISCREPANCY =          -0.00




         TIME SUMMARY AT END OF TIME STEP   22 IN STRESS PERIOD    2
                    SECONDS     MINUTES      HOURS       DAYS        YEARS
                    -----------------------------------------------------------
   TIME STEP LENGTH  7200.0      120.00      2.0000     8.33333E-02 2.28154E-04
 STRESS PERIOD TIME 1.58400E+05  2640.0      44.000      1.8333     5.01939E-03
         TOTAL TIME 2.44800E+05  4080.0      68.000      2.8333     7.75724E-03


end timestep


start timestep kper="2" kstp="23" mode="normal"

 UBDSV1 SAVING  STORAGE-AQUEOUS ON UNIT   1029 AT TIME STEP     23, STRESS PERIOD      2
 UBDSV1 SAVING     FLOW-JA-FACE ON UNIT   1029 AT TIME STEP     23, STRESS PERIOD      2
 UBDSV06 SAVING  SOURCE-SINK MIX IN MODEL GWT_RIVERBASE    PACKAGE GWT_RIVERBASE   CONNECTED TO MODEL GWT_RIVERBASE    PACKAGE SSM              ON UNIT   1029 AT TIME STEP     23, STRESS PERIOD      2
 UBDSV06 SAVING              CNC IN MODEL GWT_RIVERBASE    PACKAGE GWT_RIVERBASE   CONNECTED TO MODEL GWT_RIVERBASE    PACKAGE CNC_0            ON UNIT   1029 AT TIME STEP     23, STRESS PERIOD      2
1
  CONCENTRATION IN LAYER   1 AT END OF TIME STEP  23 IN STRESS PERIOD    2
  ---------------------------------------------------------------------------

                1               2               3               4               5               6               7               8               9              10
 ................................................................................................................................................................
   1      1.00000         1.00000         1.00000         1.00000         1.00000         1.00000         1.00000         1.00000         1.00000         1.00000    
   2     0.999994         1.00000        0.999994         1.00000         1.00000         1.00000         1.00000         1.00000         1.00000         1.00000    
   3      1.00000        0.999994         1.00000         1.00000         1.00000         1.00000         1.00000         1.00000         1.00000         1.00000    
   4      1.00000         1.00000        0.999993         1.00000         1.00000         1.00000         1.00000         1.00000         1.00000         1.00000    
   5      1.00000         1.00001         1.00000        0.999993        0.999993         1.00000         1.00000         1.00000         1.00000         1.00000    
   6      1.00001         10.0000         1.00000        0.999993         1.00000        0.999993         1.00000         1.00000         1.00000         1.00000    
   7      1.00001         10.0000         1.00000         1.00000         1.00000         1.00000        0.999992         1.00000         1.00000         1.00000    
   8      1.00000         1.00001         1.00000         1.00000         1.00000         1.00000         1.00000        0.999992        0.999992         1.00000    
   9      1.00000         1.00000         1.00000         1.00000         1.00000         1.00000         1.00000        0.999992         1.00000         1.00000    
  10      1.00000         1.00000         1.00000         1.00000         1.00000         1.00000         1.00000         1.00000         1.00000         1.00000    
  11      1.00000         1.00000         1.00000         1.00000         1.00000         1.00000         1.00000         1.00000         1.00000         1.00000    
  12      1.00000         1.00000         1.00000         1.00000         1.00000         1.00000         1.00000         1.00000         1.00000         1.00000    
  13      1.00000         1.00000         1.00000         1.00000         1.00000         1.00000         1.00000         1.00000         1.00000         1.00000    
  14      1.00000         1.00000         1.00000         1.00000         1.00000         1.00000         1.00000         1.00000         1.00000         1.00000    
  15      1.00000         1.00000         1.00000         1.00000         1.00000         1.00000         1.00000         1.00000         1.00000         1.00000    
1
  CONCENTRATION IN LAYER   2 AT END OF TIME STEP  23 IN STRESS PERIOD    2
  ---------------------------------------------------------------------------

                1               2               3               4               5               6               7               8               9              10
 ................................................................................................................................................................
   1      1.00000         1.00000         1.00000         1.00000         1.00000         1.00000         1.00000         1.00000         1.00000         1.00000    
   2      1.00000         1.00000         1.00000         1.00000         1.00000         1.00000         1.00000         1.00000         1.00000         1.00000    
   3      1.00000         1.00000         1.00000         1.00000         1.00000         1.00000         1.00000         1.00000         1.00000         1.00000    
   4      1.00000         1.00000         1.00000         1.00000         1.00000         1.00000         1.00000         1.00000         1.00000         1.00000    
   5      1.00000         1.00000         1.00000         1.00000         1.00000         1.00000         1.00000         1.00000         1.00000         1.00000    
   6      1.00000         1.00000         1.00000         1.00000         1.00000         1.00000         1.00000         1.00000         1.00000         1.00000    
   7      1.00000         1.00000         1.00000         1.00000         1.00000         1.00000         1.00000         1.00000         1.00000         1.00000    
   8      1.00000         1.00000         1.00000         1.00000         1.00000         1.00000         1.00000         1.00000         1.00000         1.00000    
   9      1.00000         1.00000         1.00000         1.00000         1.00000         1.00000         1.00000         1.00000         1.00000         1.00000    
  10      1.00000         1.00000         1.00000         1.00000         1.00000         1.00000         1.00000         1.00000         1.00000         1.00000    
  11      1.00000         1.00000         1.00000         1.00000         1.00000         1.00000         1.00000         1.00000         1.00000         1.00000    
  12      1.00000         1.00000         1.00000         1.00000         1.00000         1.00000         1.00000         1.00000         1.00000         1.00000    
  13      1.00000         1.00000         1.00000         1.00000         1.00000         1.00000         1.00000         1.00000         1.00000         1.00000    
  14      1.00000         1.00000         1.00000         1.00000         1.00000         1.00000         1.00000         1.00000         1.00000         1.00000    
  15      1.00000         1.00000         1.00000         1.00000         1.00000         1.00000         1.00000         1.00000         1.00000         1.00000    
1
  CONCENTRATION IN LAYER   3 AT END OF TIME STEP  23 IN STRESS PERIOD    2
  ---------------------------------------------------------------------------

                1               2               3               4               5               6               7               8               9              10
 ................................................................................................................................................................
   1      1.00000         1.00000         1.00000         1.00000         1.00000         1.00000         1.00000         1.00000         1.00000         1.00000    
   2      1.00000         1.00000         1.00000         1.00000         1.00000         1.00000         1.00000         1.00000         1.00000         1.00000    
   3      1.00000         1.00000         1.00000         1.00000         1.00000         1.00000         1.00000         1.00000         1.00000         1.00000    
   4      1.00000         1.00000         1.00000         1.00000         1.00000         1.00000         1.00000         1.00000         1.00000         1.00000    
   5      1.00000         1.00000         1.00000         1.00000         1.00000         1.00000         1.00000         1.00000         1.00000         1.00000    
   6      1.00000         1.00000         1.00000         1.00000         1.00000         1.00000         1.00000         1.00000         1.00000         1.00000    
   7      1.00000         1.00000         1.00000         1.00000         1.00000         1.00000         1.00000         1.00000         1.00000         1.00000    
   8      1.00000         1.00000         1.00000         1.00000         1.00000         1.00000         1.00000         1.00000         1.00000         1.00000    
   9      1.00000         1.00000         1.00000         1.00000         1.00000         1.00000         1.00000         1.00000         1.00000         1.00000    
  10      1.00000         1.00000         1.00000         1.00000         1.00000         1.00000         1.00000         1.00000         1.00000         1.00000    
  11      1.00000         1.00000         1.00000         1.00000         1.00000         1.00000         1.00000         1.00000         1.00000         1.00000    
  12      1.00000         1.00000         1.00000         1.00000         1.00000         1.00000         1.00000         1.00000         1.00000         1.00000    
  13      1.00000         1.00000         1.00000         1.00000         1.00000         1.00000         1.00000         1.00000         1.00000         1.00000    
  14      1.00000         1.00000         1.00000         1.00000         1.00000         1.00000         1.00000         1.00000         1.00000         1.00000    
  15      1.00000         1.00000         1.00000         1.00000         1.00000         1.00000         1.00000         1.00000         1.00000         1.00000    

 CONCENTRATION WILL BE SAVED ON UNIT 1030 AT END OF TIME STEP   23, STRESS PERIOD    2


  MASS BUDGET FOR ENTIRE MODEL AT END OF TIME STEP   23, STRESS PERIOD   2
  ---------------------------------------------------------------------------------------------------

     CUMULATIVE MASS      M       RATES FOR THIS TIME STEP      M/T          PACKAGE NAME    
     ------------------                 ------------------------                     ----------------

           IN:                                      IN:
           ---                                      ---
     STORAGE-AQUEOUS =           5.9756       STORAGE-AQUEOUS =           2.0475     MST                              
                 RIV =           0.0000                   RIV =           0.0000     SSM_RIV-1                        
                 CHD =           0.0000                   CHD =           0.0000     SSM_CHD-1                        
                 CNC =           2.4936                   CNC =           0.8524     CNC_0                            

            TOTAL IN =           8.4691              TOTAL IN =           2.8999

          OUT:                                     OUT:
          ----                                     ----
     STORAGE-AQUEOUS =           2.6260       STORAGE-AQUEOUS =           0.8965     MST                              
                 RIV =           0.0000                   RIV =           0.0000     SSM_RIV-1                        
                 CHD =           5.6172                   CHD =           1.9259     SSM_CHD-1                        
                 CNC =           0.2259                   CNC =       7.7437E-02     CNC_0                            

           TOTAL OUT =           8.4691             TOTAL OUT =           2.8999

            IN - OUT =      -1.4738E-10              IN - OUT =       2.8764E-09

 PERCENT DISCREPANCY =          -0.00     PERCENT DISCREPANCY =           0.00




         TIME SUMMARY AT END OF TIME STEP   23 IN STRESS PERIOD    2
                    SECONDS     MINUTES      HOURS       DAYS        YEARS
                    -----------------------------------------------------------
   TIME STEP LENGTH  7200.0      120.00      2.0000     8.33333E-02 2.28154E-04
 STRESS PERIOD TIME 1.65600E+05  2760.0      46.000      1.9167     5.24755E-03
         TOTAL TIME 2.52000E+05  4200.0      70.000      2.9167     7.98540E-03


end timestep


start timestep kper="2" kstp="24" mode="normal"

 UBDSV1 SAVING  STORAGE-AQUEOUS ON UNIT   1029 AT TIME STEP     24, STRESS PERIOD      2
 UBDSV1 SAVING     FLOW-JA-FACE ON UNIT   1029 AT TIME STEP     24, STRESS PERIOD      2
 UBDSV06 SAVING  SOURCE-SINK MIX IN MODEL GWT_RIVERBASE    PACKAGE GWT_RIVERBASE   CONNECTED TO MODEL GWT_RIVERBASE    PACKAGE SSM              ON UNIT   1029 AT TIME STEP     24, STRESS PERIOD      2
 UBDSV06 SAVING              CNC IN MODEL GWT_RIVERBASE    PACKAGE GWT_RIVERBASE   CONNECTED TO MODEL GWT_RIVERBASE    PACKAGE CNC_0            ON UNIT   1029 AT TIME STEP     24, STRESS PERIOD      2
1
  CONCENTRATION IN LAYER   1 AT END OF TIME STEP  24 IN STRESS PERIOD    2
  ---------------------------------------------------------------------------

                1               2               3               4               5               6               7               8               9              10
 ................................................................................................................................................................
   1      1.00000         1.00000         1.00000         1.00000         1.00000         1.00000         1.00000         1.00000         1.00000         1.00000    
   2     0.999994         1.00000        0.999994         1.00000         1.00000         1.00000         1.00000         1.00000         1.00000         1.00000    
   3      1.00000        0.999993         1.00000         1.00000         1.00000         1.00000         1.00000         1.00000         1.00000         1.00000    
   4      1.00000         1.00000        0.999993         1.00000         1.00000         1.00000         1.00000         1.00000         1.00000         1.00000    
   5      1.00000         1.00001         1.00000        0.999993        0.999993         1.00000         1.00000         1.00000         1.00000         1.00000    
   6      1.00001         10.0000         1.00000        0.999993         1.00000        0.999992         1.00000         1.00000         1.00000         1.00000    
   7      1.00001         10.0000         1.00000         1.00000         1.00000         1.00000        0.999992         1.00000         1.00000         1.00000    
   8      1.00000         1.00001         1.00000         1.00000         1.00000         1.00000         1.00000        0.999992        0.999992         1.00000    
   9      1.00000         1.00000         1.00000         1.00000         1.00000         1.00000         1.00000        0.999992         1.00000         1.00000    
  10      1.00000         1.00000         1.00000         1.00000         1.00000         1.00000         1.00000         1.00000         1.00000         1.00000    
  11      1.00000         1.00000         1.00000         1.00000         1.00000         1.00000         1.00000         1.00000         1.00000         1.00000    
  12      1.00000         1.00000         1.00000         1.00000         1.00000         1.00000         1.00000         1.00000         1.00000         1.00000    
  13      1.00000         1.00000         1.00000         1.00000         1.00000         1.00000         1.00000         1.00000         1.00000         1.00000    
  14      1.00000         1.00000         1.00000         1.00000         1.00000         1.00000         1.00000         1.00000         1.00000         1.00000    
  15      1.00000         1.00000         1.00000         1.00000         1.00000         1.00000         1.00000         1.00000         1.00000         1.00000    
1
  CONCENTRATION IN LAYER   2 AT END OF TIME STEP  24 IN STRESS PERIOD    2
  ---------------------------------------------------------------------------

                1               2               3               4               5               6               7               8               9              10
 ................................................................................................................................................................
   1      1.00000         1.00000         1.00000         1.00000         1.00000         1.00000         1.00000         1.00000         1.00000         1.00000    
   2      1.00000         1.00000         1.00000         1.00000         1.00000         1.00000         1.00000         1.00000         1.00000         1.00000    
   3      1.00000         1.00000         1.00000         1.00000         1.00000         1.00000         1.00000         1.00000         1.00000         1.00000    
   4      1.00000         1.00000         1.00000         1.00000         1.00000         1.00000         1.00000         1.00000         1.00000         1.00000    
   5      1.00000         1.00000         1.00000         1.00000         1.00000         1.00000         1.00000         1.00000         1.00000         1.00000    
   6      1.00000         1.00000         1.00000         1.00000         1.00000         1.00000         1.00000         1.00000         1.00000         1.00000    
   7      1.00000         1.00000         1.00000         1.00000         1.00000         1.00000         1.00000         1.00000         1.00000         1.00000    
   8      1.00000         1.00000         1.00000         1.00000         1.00000         1.00000         1.00000         1.00000         1.00000         1.00000    
   9      1.00000         1.00000         1.00000         1.00000         1.00000         1.00000         1.00000         1.00000         1.00000         1.00000    
  10      1.00000         1.00000         1.00000         1.00000         1.00000         1.00000         1.00000         1.00000         1.00000         1.00000    
  11      1.00000         1.00000         1.00000         1.00000         1.00000         1.00000         1.00000         1.00000         1.00000         1.00000    
  12      1.00000         1.00000         1.00000         1.00000         1.00000         1.00000         1.00000         1.00000         1.00000         1.00000    
  13      1.00000         1.00000         1.00000         1.00000         1.00000         1.00000         1.00000         1.00000         1.00000         1.00000    
  14      1.00000         1.00000         1.00000         1.00000         1.00000         1.00000         1.00000         1.00000         1.00000         1.00000    
  15      1.00000         1.00000         1.00000         1.00000         1.00000         1.00000         1.00000         1.00000         1.00000         1.00000    
1
  CONCENTRATION IN LAYER   3 AT END OF TIME STEP  24 IN STRESS PERIOD    2
  ---------------------------------------------------------------------------

                1               2               3               4               5               6               7               8               9              10
 ................................................................................................................................................................
   1      1.00000         1.00000         1.00000         1.00000         1.00000         1.00000         1.00000         1.00000         1.00000         1.00000    
   2      1.00000         1.00000         1.00000         1.00000         1.00000         1.00000         1.00000         1.00000         1.00000         1.00000    
   3      1.00000         1.00000         1.00000         1.00000         1.00000         1.00000         1.00000         1.00000         1.00000         1.00000    
   4      1.00000         1.00000         1.00000         1.00000         1.00000         1.00000         1.00000         1.00000         1.00000         1.00000    
   5      1.00000         1.00000         1.00000         1.00000         1.00000         1.00000         1.00000         1.00000         1.00000         1.00000    
   6      1.00000         1.00000         1.00000         1.00000         1.00000         1.00000         1.00000         1.00000         1.00000         1.00000    
   7      1.00000         1.00000         1.00000         1.00000         1.00000         1.00000         1.00000         1.00000         1.00000         1.00000    
   8      1.00000         1.00000         1.00000         1.00000         1.00000         1.00000         1.00000         1.00000         1.00000         1.00000    
   9      1.00000         1.00000         1.00000         1.00000         1.00000         1.00000         1.00000         1.00000         1.00000         1.00000    
  10      1.00000         1.00000         1.00000         1.00000         1.00000         1.00000         1.00000         1.00000         1.00000         1.00000    
  11      1.00000         1.00000         1.00000         1.00000         1.00000         1.00000         1.00000         1.00000         1.00000         1.00000    
  12      1.00000         1.00000         1.00000         1.00000         1.00000         1.00000         1.00000         1.00000         1.00000         1.00000    
  13      1.00000         1.00000         1.00000         1.00000         1.00000         1.00000         1.00000         1.00000         1.00000         1.00000    
  14      1.00000         1.00000         1.00000         1.00000         1.00000         1.00000         1.00000         1.00000         1.00000         1.00000    
  15      1.00000         1.00000         1.00000         1.00000         1.00000         1.00000         1.00000         1.00000         1.00000         1.00000    

 CONCENTRATION WILL BE SAVED ON UNIT 1030 AT END OF TIME STEP   24, STRESS PERIOD    2


  MASS BUDGET FOR ENTIRE MODEL AT END OF TIME STEP   24, STRESS PERIOD   2
  ---------------------------------------------------------------------------------------------------

     CUMULATIVE MASS      M       RATES FOR THIS TIME STEP      M/T          PACKAGE NAME    
     ------------------                 ------------------------                     ----------------

           IN:                                      IN:
           ---                                      ---
     STORAGE-AQUEOUS =           6.1462       STORAGE-AQUEOUS =           2.0475     MST                              
                 RIV =           0.0000                   RIV =           0.0000     SSM_RIV-1                        
                 CHD =           0.0000                   CHD =           0.0000     SSM_CHD-1                        
                 CNC =           2.5646                   CNC =           0.8524     CNC_0                            

            TOTAL IN =           8.7108              TOTAL IN =           2.8999

          OUT:                                     OUT:
          ----                                     ----
     STORAGE-AQUEOUS =           2.7007       STORAGE-AQUEOUS =           0.8965     MST                              
                 RIV =           0.0000                   RIV =           0.0000     SSM_RIV-1                        
                 CHD =           5.7777                   CHD =           1.9259     SSM_CHD-1                        
                 CNC =           0.2323                   CNC =       7.7437E-02     CNC_0                            

           TOTAL OUT =           8.7108             TOTAL OUT =           2.8999

            IN - OUT =      -3.7620E-11              IN - OUT =       1.3172E-09

 PERCENT DISCREPANCY =          -0.00     PERCENT DISCREPANCY =           0.00




         TIME SUMMARY AT END OF TIME STEP   24 IN STRESS PERIOD    2
                    SECONDS     MINUTES      HOURS       DAYS        YEARS
                    -----------------------------------------------------------
   TIME STEP LENGTH  7200.0      120.00      2.0000     8.33333E-02 2.28154E-04
 STRESS PERIOD TIME 1.72800E+05  2880.0      48.000      2.0000     5.47570E-03
         TOTAL TIME 2.59200E+05  4320.0      72.000      3.0000     8.21355E-03


end timestep


start timestep kper="2" kstp="25" mode="normal"

 UBDSV1 SAVING  STORAGE-AQUEOUS ON UNIT   1029 AT TIME STEP     25, STRESS PERIOD      2
 UBDSV1 SAVING     FLOW-JA-FACE ON UNIT   1029 AT TIME STEP     25, STRESS PERIOD      2
 UBDSV06 SAVING  SOURCE-SINK MIX IN MODEL GWT_RIVERBASE    PACKAGE GWT_RIVERBASE   CONNECTED TO MODEL GWT_RIVERBASE    PACKAGE SSM              ON UNIT   1029 AT TIME STEP     25, STRESS PERIOD      2
 UBDSV06 SAVING              CNC IN MODEL GWT_RIVERBASE    PACKAGE GWT_RIVERBASE   CONNECTED TO MODEL GWT_RIVERBASE    PACKAGE CNC_0            ON UNIT   1029 AT TIME STEP     25, STRESS PERIOD      2
1
  CONCENTRATION IN LAYER   1 AT END OF TIME STEP  25 IN STRESS PERIOD    2
  ---------------------------------------------------------------------------

                1               2               3               4               5               6               7               8               9              10
 ................................................................................................................................................................
   1      1.00000         1.00000         1.00000         1.00000         1.00000         1.00000         1.00000         1.00000         1.00000         1.00000    
   2     0.999994         1.00000        0.999993         1.00000         1.00000         1.00000         1.00000         1.00000         1.00000         1.00000    
   3      1.00000        0.999993         1.00000         1.00000         1.00000         1.00000         1.00000         1.00000         1.00000         1.00000    
   4      1.00000         1.00000        0.999993         1.00000         1.00000         1.00000         1.00000         1.00000         1.00000         1.00000    
   5      1.00000         1.00001         1.00000        0.999993        0.999992         1.00000         1.00000         1.00000         1.00000         1.00000    
   6      1.00001         10.0000         1.00000        0.999993         1.00000        0.999992         1.00000         1.00000         1.00000         1.00000    
   7      1.00001         10.0000         1.00000         1.00000         1.00000         1.00000        0.999992         1.00000         1.00000         1.00000    
   8      1.00000         1.00001         1.00000         1.00000         1.00000         1.00000         1.00000        0.999992        0.999991         1.00000    
   9      1.00000         1.00000         1.00000         1.00000         1.00000         1.00000         1.00000        0.999992         1.00000         1.00000    
  10      1.00000         1.00000         1.00000         1.00000         1.00000         1.00000         1.00000         1.00000         1.00000         1.00000    
  11      1.00000         1.00000         1.00000         1.00000         1.00000         1.00000         1.00000         1.00000         1.00000         1.00000    
  12      1.00000         1.00000         1.00000         1.00000         1.00000         1.00000         1.00000         1.00000         1.00000         1.00000    
  13      1.00000         1.00000         1.00000         1.00000         1.00000         1.00000         1.00000         1.00000         1.00000         1.00000    
  14      1.00000         1.00000         1.00000         1.00000         1.00000         1.00000         1.00000         1.00000         1.00000         1.00000    
  15      1.00000         1.00000         1.00000         1.00000         1.00000         1.00000         1.00000         1.00000         1.00000         1.00000    
1
  CONCENTRATION IN LAYER   2 AT END OF TIME STEP  25 IN STRESS PERIOD    2
  ---------------------------------------------------------------------------

                1               2               3               4               5               6               7               8               9              10
 ................................................................................................................................................................
   1      1.00000         1.00000         1.00000         1.00000         1.00000         1.00000         1.00000         1.00000         1.00000         1.00000    
   2      1.00000         1.00000         1.00000         1.00000         1.00000         1.00000         1.00000         1.00000         1.00000         1.00000    
   3      1.00000         1.00000         1.00000         1.00000         1.00000         1.00000         1.00000         1.00000         1.00000         1.00000    
   4      1.00000         1.00000         1.00000         1.00000         1.00000         1.00000         1.00000         1.00000         1.00000         1.00000    
   5      1.00000         1.00000         1.00000         1.00000         1.00000         1.00000         1.00000         1.00000         1.00000         1.00000    
   6      1.00000         1.00000         1.00000         1.00000         1.00000         1.00000         1.00000         1.00000         1.00000         1.00000    
   7      1.00000         1.00000         1.00000         1.00000         1.00000         1.00000         1.00000         1.00000         1.00000         1.00000    
   8      1.00000         1.00000         1.00000         1.00000         1.00000         1.00000         1.00000         1.00000         1.00000         1.00000    
   9      1.00000         1.00000         1.00000         1.00000         1.00000         1.00000         1.00000         1.00000         1.00000         1.00000    
  10      1.00000         1.00000         1.00000         1.00000         1.00000         1.00000         1.00000         1.00000         1.00000         1.00000    
  11      1.00000         1.00000         1.00000         1.00000         1.00000         1.00000         1.00000         1.00000         1.00000         1.00000    
  12      1.00000         1.00000         1.00000         1.00000         1.00000         1.00000         1.00000         1.00000         1.00000         1.00000    
  13      1.00000         1.00000         1.00000         1.00000         1.00000         1.00000         1.00000         1.00000         1.00000         1.00000    
  14      1.00000         1.00000         1.00000         1.00000         1.00000         1.00000         1.00000         1.00000         1.00000         1.00000    
  15      1.00000         1.00000         1.00000         1.00000         1.00000         1.00000         1.00000         1.00000         1.00000         1.00000    
1
  CONCENTRATION IN LAYER   3 AT END OF TIME STEP  25 IN STRESS PERIOD    2
  ---------------------------------------------------------------------------

                1               2               3               4               5               6               7               8               9              10
 ................................................................................................................................................................
   1      1.00000         1.00000         1.00000         1.00000         1.00000         1.00000         1.00000         1.00000         1.00000         1.00000    
   2      1.00000         1.00000         1.00000         1.00000         1.00000         1.00000         1.00000         1.00000         1.00000         1.00000    
   3      1.00000         1.00000         1.00000         1.00000         1.00000         1.00000         1.00000         1.00000         1.00000         1.00000    
   4      1.00000         1.00000         1.00000         1.00000         1.00000         1.00000         1.00000         1.00000         1.00000         1.00000    
   5      1.00000         1.00000         1.00000         1.00000         1.00000         1.00000         1.00000         1.00000         1.00000         1.00000    
   6      1.00000         1.00000         1.00000         1.00000         1.00000         1.00000         1.00000         1.00000         1.00000         1.00000    
   7      1.00000         1.00000         1.00000         1.00000         1.00000         1.00000         1.00000         1.00000         1.00000         1.00000    
   8      1.00000         1.00000         1.00000         1.00000         1.00000         1.00000         1.00000         1.00000         1.00000         1.00000    
   9      1.00000         1.00000         1.00000         1.00000         1.00000         1.00000         1.00000         1.00000         1.00000         1.00000    
  10      1.00000         1.00000         1.00000         1.00000         1.00000         1.00000         1.00000         1.00000         1.00000         1.00000    
  11      1.00000         1.00000         1.00000         1.00000         1.00000         1.00000         1.00000         1.00000         1.00000         1.00000    
  12      1.00000         1.00000         1.00000         1.00000         1.00000         1.00000         1.00000         1.00000         1.00000         1.00000    
  13      1.00000         1.00000         1.00000         1.00000         1.00000         1.00000         1.00000         1.00000         1.00000         1.00000    
  14      1.00000         1.00000         1.00000         1.00000         1.00000         1.00000         1.00000         1.00000         1.00000         1.00000    
  15      1.00000         1.00000         1.00000         1.00000         1.00000         1.00000         1.00000         1.00000         1.00000         1.00000    

 CONCENTRATION WILL BE SAVED ON UNIT 1030 AT END OF TIME STEP   25, STRESS PERIOD    2


  MASS BUDGET FOR ENTIRE MODEL AT END OF TIME STEP   25, STRESS PERIOD   2
  ---------------------------------------------------------------------------------------------------

     CUMULATIVE MASS      M       RATES FOR THIS TIME STEP      M/T          PACKAGE NAME    
     ------------------                 ------------------------                     ----------------

           IN:                                      IN:
           ---                                      ---
     STORAGE-AQUEOUS =           6.3168       STORAGE-AQUEOUS =           2.0475     MST                              
                 RIV =           0.0000                   RIV =           0.0000     SSM_RIV-1                        
                 CHD =           0.0000                   CHD =           0.0000     SSM_CHD-1                        
                 CNC =           2.6356                   CNC =           0.8524     CNC_0                            

            TOTAL IN =           8.9525              TOTAL IN =           2.8999

          OUT:                                     OUT:
          ----                                     ----
     STORAGE-AQUEOUS =           2.7755       STORAGE-AQUEOUS =           0.8965     MST                              
                 RIV =           0.0000                   RIV =           0.0000     SSM_RIV-1                        
                 CHD =           5.9382                   CHD =           1.9259     SSM_CHD-1                        
                 CNC =           0.2388                   CNC =       7.7437E-02     CNC_0                            

           TOTAL OUT =           8.9525             TOTAL OUT =           2.8999

            IN - OUT =      -1.0208E-10              IN - OUT =      -7.7353E-10

 PERCENT DISCREPANCY =          -0.00     PERCENT DISCREPANCY =          -0.00




         TIME SUMMARY AT END OF TIME STEP   25 IN STRESS PERIOD    2
                    SECONDS     MINUTES      HOURS       DAYS        YEARS
                    -----------------------------------------------------------
   TIME STEP LENGTH  7200.0      120.00      2.0000     8.33333E-02 2.28154E-04
 STRESS PERIOD TIME 1.80000E+05  3000.0      50.000      2.0833     5.70386E-03
         TOTAL TIME 2.66400E+05  4440.0      74.000      3.0833     8.44171E-03


end timestep


start timestep kper="2" kstp="26" mode="normal"

 UBDSV1 SAVING  STORAGE-AQUEOUS ON UNIT   1029 AT TIME STEP     26, STRESS PERIOD      2
 UBDSV1 SAVING     FLOW-JA-FACE ON UNIT   1029 AT TIME STEP     26, STRESS PERIOD      2
 UBDSV06 SAVING  SOURCE-SINK MIX IN MODEL GWT_RIVERBASE    PACKAGE GWT_RIVERBASE   CONNECTED TO MODEL GWT_RIVERBASE    PACKAGE SSM              ON UNIT   1029 AT TIME STEP     26, STRESS PERIOD      2
 UBDSV06 SAVING              CNC IN MODEL GWT_RIVERBASE    PACKAGE GWT_RIVERBASE   CONNECTED TO MODEL GWT_RIVERBASE    PACKAGE CNC_0            ON UNIT   1029 AT TIME STEP     26, STRESS PERIOD      2
1
  CONCENTRATION IN LAYER   1 AT END OF TIME STEP  26 IN STRESS PERIOD    2
  ---------------------------------------------------------------------------

                1               2               3               4               5               6               7               8               9              10
 ................................................................................................................................................................
   1      1.00000         1.00000         1.00000         1.00000         1.00000         1.00000         1.00000         1.00000         1.00000         1.00000    
   2     0.999993         1.00000        0.999993         1.00000         1.00000         1.00000         1.00000         1.00000         1.00000         1.00000    
   3      1.00000        0.999993         1.00000         1.00000         1.00000         1.00000         1.00000         1.00000         1.00000         1.00000    
   4      1.00000         1.00000        0.999993         1.00000         1.00000         1.00000         1.00000         1.00000         1.00000         1.00000    
   5      1.00000         1.00001         1.00000        0.999993        0.999992         1.00000         1.00000         1.00000         1.00000         1.00000    
   6      1.00001         10.0000         1.00000        0.999992         1.00000        0.999992         1.00000         1.00000         1.00000         1.00000    
   7      1.00001         10.0000         1.00000         1.00000         1.00000         1.00000        0.999992         1.00000         1.00000         1.00000    
   8      1.00000         1.00001         1.00000         1.00000         1.00000         1.00000         1.00000        0.999992        0.999991         1.00000    
   9      1.00000         1.00000         1.00000         1.00000         1.00000         1.00000         1.00000        0.999991         1.00000         1.00000    
  10      1.00000         1.00000         1.00000         1.00000         1.00000         1.00000         1.00000         1.00000         1.00000         1.00000    
  11      1.00000         1.00000         1.00000         1.00000         1.00000         1.00000         1.00000         1.00000         1.00000         1.00000    
  12      1.00000         1.00000         1.00000         1.00000         1.00000         1.00000         1.00000         1.00000         1.00000         1.00000    
  13      1.00000         1.00000         1.00000         1.00000         1.00000         1.00000         1.00000         1.00000         1.00000         1.00000    
  14      1.00000         1.00000         1.00000         1.00000         1.00000         1.00000         1.00000         1.00000         1.00000         1.00000    
  15      1.00000         1.00000         1.00000         1.00000         1.00000         1.00000         1.00000         1.00000         1.00000         1.00000    
1
  CONCENTRATION IN LAYER   2 AT END OF TIME STEP  26 IN STRESS PERIOD    2
  ---------------------------------------------------------------------------

                1               2               3               4               5               6               7               8               9              10
 ................................................................................................................................................................
   1      1.00000         1.00000         1.00000         1.00000         1.00000         1.00000         1.00000         1.00000         1.00000         1.00000    
   2      1.00000         1.00000         1.00000         1.00000         1.00000         1.00000         1.00000         1.00000         1.00000         1.00000    
   3      1.00000         1.00000         1.00000         1.00000         1.00000         1.00000         1.00000         1.00000         1.00000         1.00000    
   4      1.00000         1.00000         1.00000         1.00000         1.00000         1.00000         1.00000         1.00000         1.00000         1.00000    
   5      1.00000         1.00000         1.00000         1.00000         1.00000         1.00000         1.00000         1.00000         1.00000         1.00000    
   6      1.00000         1.00000         1.00000         1.00000         1.00000         1.00000         1.00000         1.00000         1.00000         1.00000    
   7      1.00000         1.00000         1.00000         1.00000         1.00000         1.00000         1.00000         1.00000         1.00000         1.00000    
   8      1.00000         1.00000         1.00000         1.00000         1.00000         1.00000         1.00000         1.00000         1.00000         1.00000    
   9      1.00000         1.00000         1.00000         1.00000         1.00000         1.00000         1.00000         1.00000         1.00000         1.00000    
  10      1.00000         1.00000         1.00000         1.00000         1.00000         1.00000         1.00000         1.00000         1.00000         1.00000    
  11      1.00000         1.00000         1.00000         1.00000         1.00000         1.00000         1.00000         1.00000         1.00000         1.00000    
  12      1.00000         1.00000         1.00000         1.00000         1.00000         1.00000         1.00000         1.00000         1.00000         1.00000    
  13      1.00000         1.00000         1.00000         1.00000         1.00000         1.00000         1.00000         1.00000         1.00000         1.00000    
  14      1.00000         1.00000         1.00000         1.00000         1.00000         1.00000         1.00000         1.00000         1.00000         1.00000    
  15      1.00000         1.00000         1.00000         1.00000         1.00000         1.00000         1.00000         1.00000         1.00000         1.00000    
1
  CONCENTRATION IN LAYER   3 AT END OF TIME STEP  26 IN STRESS PERIOD    2
  ---------------------------------------------------------------------------

                1               2               3               4               5               6               7               8               9              10
 ................................................................................................................................................................
   1      1.00000         1.00000         1.00000         1.00000         1.00000         1.00000         1.00000         1.00000         1.00000         1.00000    
   2      1.00000         1.00000         1.00000         1.00000         1.00000         1.00000         1.00000         1.00000         1.00000         1.00000    
   3      1.00000         1.00000         1.00000         1.00000         1.00000         1.00000         1.00000         1.00000         1.00000         1.00000    
   4      1.00000         1.00000         1.00000         1.00000         1.00000         1.00000         1.00000         1.00000         1.00000         1.00000    
   5      1.00000         1.00000         1.00000         1.00000         1.00000         1.00000         1.00000         1.00000         1.00000         1.00000    
   6      1.00000         1.00000         1.00000         1.00000         1.00000         1.00000         1.00000         1.00000         1.00000         1.00000    
   7      1.00000         1.00000         1.00000         1.00000         1.00000         1.00000         1.00000         1.00000         1.00000         1.00000    
   8      1.00000         1.00000         1.00000         1.00000         1.00000         1.00000         1.00000         1.00000         1.00000         1.00000    
   9      1.00000         1.00000         1.00000         1.00000         1.00000         1.00000         1.00000         1.00000         1.00000         1.00000    
  10      1.00000         1.00000         1.00000         1.00000         1.00000         1.00000         1.00000         1.00000         1.00000         1.00000    
  11      1.00000         1.00000         1.00000         1.00000         1.00000         1.00000         1.00000         1.00000         1.00000         1.00000    
  12      1.00000         1.00000         1.00000         1.00000         1.00000         1.00000         1.00000         1.00000         1.00000         1.00000    
  13      1.00000         1.00000         1.00000         1.00000         1.00000         1.00000         1.00000         1.00000         1.00000         1.00000    
  14      1.00000         1.00000         1.00000         1.00000         1.00000         1.00000         1.00000         1.00000         1.00000         1.00000    
  15      1.00000         1.00000         1.00000         1.00000         1.00000         1.00000         1.00000         1.00000         1.00000         1.00000    

 CONCENTRATION WILL BE SAVED ON UNIT 1030 AT END OF TIME STEP   26, STRESS PERIOD    2


  MASS BUDGET FOR ENTIRE MODEL AT END OF TIME STEP   26, STRESS PERIOD   2
  ---------------------------------------------------------------------------------------------------

     CUMULATIVE MASS      M       RATES FOR THIS TIME STEP      M/T          PACKAGE NAME    
     ------------------                 ------------------------                     ----------------

           IN:                                      IN:
           ---                                      ---
     STORAGE-AQUEOUS =           6.4874       STORAGE-AQUEOUS =           2.0475     MST                              
                 RIV =           0.0000                   RIV =           0.0000     SSM_RIV-1                        
                 CHD =           0.0000                   CHD =           0.0000     SSM_CHD-1                        
                 CNC =           2.7067                   CNC =           0.8524     CNC_0                            

            TOTAL IN =           9.1941              TOTAL IN =           2.8999

          OUT:                                     OUT:
          ----                                     ----
     STORAGE-AQUEOUS =           2.8502       STORAGE-AQUEOUS =           0.8965     MST                              
                 RIV =           0.0000                   RIV =           0.0000     SSM_RIV-1                        
                 CHD =           6.0987                   CHD =           1.9259     SSM_CHD-1                        
                 CNC =           0.2452                   CNC =       7.7437E-02     CNC_0                            

           TOTAL OUT =           9.1941             TOTAL OUT =           2.8999

            IN - OUT =      -1.9068E-10              IN - OUT =      -1.0632E-09

 PERCENT DISCREPANCY =          -0.00     PERCENT DISCREPANCY =          -0.00




         TIME SUMMARY AT END OF TIME STEP   26 IN STRESS PERIOD    2
                    SECONDS     MINUTES      HOURS       DAYS        YEARS
                    -----------------------------------------------------------
   TIME STEP LENGTH  7200.0      120.00      2.0000     8.33333E-02 2.28154E-04
 STRESS PERIOD TIME 1.87200E+05  3120.0      52.000      2.1667     5.93201E-03
         TOTAL TIME 2.73600E+05  4560.0      76.000      3.1667     8.66986E-03


end timestep


start timestep kper="2" kstp="27" mode="normal"

 UBDSV1 SAVING  STORAGE-AQUEOUS ON UNIT   1029 AT TIME STEP     27, STRESS PERIOD      2
 UBDSV1 SAVING     FLOW-JA-FACE ON UNIT   1029 AT TIME STEP     27, STRESS PERIOD      2
 UBDSV06 SAVING  SOURCE-SINK MIX IN MODEL GWT_RIVERBASE    PACKAGE GWT_RIVERBASE   CONNECTED TO MODEL GWT_RIVERBASE    PACKAGE SSM              ON UNIT   1029 AT TIME STEP     27, STRESS PERIOD      2
 UBDSV06 SAVING              CNC IN MODEL GWT_RIVERBASE    PACKAGE GWT_RIVERBASE   CONNECTED TO MODEL GWT_RIVERBASE    PACKAGE CNC_0            ON UNIT   1029 AT TIME STEP     27, STRESS PERIOD      2
1
  CONCENTRATION IN LAYER   1 AT END OF TIME STEP  27 IN STRESS PERIOD    2
  ---------------------------------------------------------------------------

                1               2               3               4               5               6               7               8               9              10
 ................................................................................................................................................................
   1      1.00000         1.00000         1.00000         1.00000         1.00000         1.00000         1.00000         1.00000         1.00000         1.00000    
   2     0.999993         1.00000        0.999993         1.00000         1.00000         1.00000         1.00000         1.00000         1.00000         1.00000    
   3      1.00000        0.999993         1.00000         1.00000         1.00000         1.00000         1.00000         1.00000         1.00000         1.00000    
   4      1.00000         1.00000        0.999993         1.00000         1.00000         1.00000         1.00000         1.00000         1.00000         1.00000    
   5      1.00000         1.00001         1.00000        0.999992        0.999992         1.00000         1.00000         1.00000         1.00000         1.00000    
   6      1.00001         10.0000         1.00000        0.999992         1.00000        0.999992         1.00000         1.00000         1.00000         1.00000    
   7      1.00001         10.0000         1.00000         1.00000         1.00000         1.00000        0.999992         1.00000         1.00000         1.00000    
   8      1.00000         1.00001         1.00000         1.00000         1.00000         1.00000         1.00000        0.999991        0.999991         1.00000    
   9      1.00000         1.00000         1.00000         1.00000         1.00000         1.00000         1.00000        0.999991         1.00000         1.00000    
  10      1.00000         1.00000         1.00000         1.00000         1.00000         1.00000         1.00000         1.00000         1.00000         1.00000    
  11      1.00000         1.00000         1.00000         1.00000         1.00000         1.00000         1.00000         1.00000         1.00000         1.00000    
  12      1.00000         1.00000         1.00000         1.00000         1.00000         1.00000         1.00000         1.00000         1.00000         1.00000    
  13      1.00000         1.00000         1.00000         1.00000         1.00000         1.00000         1.00000         1.00000         1.00000         1.00000    
  14      1.00000         1.00000         1.00000         1.00000         1.00000         1.00000         1.00000         1.00000         1.00000         1.00000    
  15      1.00000         1.00000         1.00000         1.00000         1.00000         1.00000         1.00000         1.00000         1.00000         1.00000    
1
  CONCENTRATION IN LAYER   2 AT END OF TIME STEP  27 IN STRESS PERIOD    2
  ---------------------------------------------------------------------------

                1               2               3               4               5               6               7               8               9              10
 ................................................................................................................................................................
   1      1.00000         1.00000         1.00000         1.00000         1.00000         1.00000         1.00000         1.00000         1.00000         1.00000    
   2      1.00000         1.00000         1.00000         1.00000         1.00000         1.00000         1.00000         1.00000         1.00000         1.00000    
   3      1.00000         1.00000         1.00000         1.00000         1.00000         1.00000         1.00000         1.00000         1.00000         1.00000    
   4      1.00000         1.00000         1.00000         1.00000         1.00000         1.00000         1.00000         1.00000         1.00000         1.00000    
   5      1.00000         1.00000         1.00000         1.00000         1.00000         1.00000         1.00000         1.00000         1.00000         1.00000    
   6      1.00000         1.00000         1.00000         1.00000         1.00000         1.00000         1.00000         1.00000         1.00000         1.00000    
   7      1.00000         1.00000         1.00000         1.00000         1.00000         1.00000         1.00000         1.00000         1.00000         1.00000    
   8      1.00000         1.00000         1.00000         1.00000         1.00000         1.00000         1.00000         1.00000         1.00000         1.00000    
   9      1.00000         1.00000         1.00000         1.00000         1.00000         1.00000         1.00000         1.00000         1.00000         1.00000    
  10      1.00000         1.00000         1.00000         1.00000         1.00000         1.00000         1.00000         1.00000         1.00000         1.00000    
  11      1.00000         1.00000         1.00000         1.00000         1.00000         1.00000         1.00000         1.00000         1.00000         1.00000    
  12      1.00000         1.00000         1.00000         1.00000         1.00000         1.00000         1.00000         1.00000         1.00000         1.00000    
  13      1.00000         1.00000         1.00000         1.00000         1.00000         1.00000         1.00000         1.00000         1.00000         1.00000    
  14      1.00000         1.00000         1.00000         1.00000         1.00000         1.00000         1.00000         1.00000         1.00000         1.00000    
  15      1.00000         1.00000         1.00000         1.00000         1.00000         1.00000         1.00000         1.00000         1.00000         1.00000    
1
  CONCENTRATION IN LAYER   3 AT END OF TIME STEP  27 IN STRESS PERIOD    2
  ---------------------------------------------------------------------------

                1               2               3               4               5               6               7               8               9              10
 ................................................................................................................................................................
   1      1.00000         1.00000         1.00000         1.00000         1.00000         1.00000         1.00000         1.00000         1.00000         1.00000    
   2      1.00000         1.00000         1.00000         1.00000         1.00000         1.00000         1.00000         1.00000         1.00000         1.00000    
   3      1.00000         1.00000         1.00000         1.00000         1.00000         1.00000         1.00000         1.00000         1.00000         1.00000    
   4      1.00000         1.00000         1.00000         1.00000         1.00000         1.00000         1.00000         1.00000         1.00000         1.00000    
   5      1.00000         1.00000         1.00000         1.00000         1.00000         1.00000         1.00000         1.00000         1.00000         1.00000    
   6      1.00000         1.00000         1.00000         1.00000         1.00000         1.00000         1.00000         1.00000         1.00000         1.00000    
   7      1.00000         1.00000         1.00000         1.00000         1.00000         1.00000         1.00000         1.00000         1.00000         1.00000    
   8      1.00000         1.00000         1.00000         1.00000         1.00000         1.00000         1.00000         1.00000         1.00000         1.00000    
   9      1.00000         1.00000         1.00000         1.00000         1.00000         1.00000         1.00000         1.00000         1.00000         1.00000    
  10      1.00000         1.00000         1.00000         1.00000         1.00000         1.00000         1.00000         1.00000         1.00000         1.00000    
  11      1.00000         1.00000         1.00000         1.00000         1.00000         1.00000         1.00000         1.00000         1.00000         1.00000    
  12      1.00000         1.00000         1.00000         1.00000         1.00000         1.00000         1.00000         1.00000         1.00000         1.00000    
  13      1.00000         1.00000         1.00000         1.00000         1.00000         1.00000         1.00000         1.00000         1.00000         1.00000    
  14      1.00000         1.00000         1.00000         1.00000         1.00000         1.00000         1.00000         1.00000         1.00000         1.00000    
  15      1.00000         1.00000         1.00000         1.00000         1.00000         1.00000         1.00000         1.00000         1.00000         1.00000    

 CONCENTRATION WILL BE SAVED ON UNIT 1030 AT END OF TIME STEP   27, STRESS PERIOD    2


  MASS BUDGET FOR ENTIRE MODEL AT END OF TIME STEP   27, STRESS PERIOD   2
  ---------------------------------------------------------------------------------------------------

     CUMULATIVE MASS      M       RATES FOR THIS TIME STEP      M/T          PACKAGE NAME    
     ------------------                 ------------------------                     ----------------

           IN:                                      IN:
           ---                                      ---
     STORAGE-AQUEOUS =           6.6581       STORAGE-AQUEOUS =           2.0475     MST                              
                 RIV =           0.0000                   RIV =           0.0000     SSM_RIV-1                        
                 CHD =           0.0000                   CHD =           0.0000     SSM_CHD-1                        
                 CNC =           2.7777                   CNC =           0.8524     CNC_0                            

            TOTAL IN =           9.4358              TOTAL IN =           2.8999

          OUT:                                     OUT:
          ----                                     ----
     STORAGE-AQUEOUS =           2.9249       STORAGE-AQUEOUS =           0.8965     MST                              
                 RIV =           0.0000                   RIV =           0.0000     SSM_RIV-1                        
                 CHD =           6.2592                   CHD =           1.9259     SSM_CHD-1                        
                 CNC =           0.2517                   CNC =       7.7437E-02     CNC_0                            

           TOTAL OUT =           9.4358             TOTAL OUT =           2.8999

            IN - OUT =      -9.4989E-11              IN - OUT =       1.1483E-09

 PERCENT DISCREPANCY =          -0.00     PERCENT DISCREPANCY =           0.00




         TIME SUMMARY AT END OF TIME STEP   27 IN STRESS PERIOD    2
                    SECONDS     MINUTES      HOURS       DAYS        YEARS
                    -----------------------------------------------------------
   TIME STEP LENGTH  7200.0      120.00      2.0000     8.33333E-02 2.28154E-04
 STRESS PERIOD TIME 1.94400E+05  3240.0      54.000      2.2500     6.16016E-03
         TOTAL TIME 2.80800E+05  4680.0      78.000      3.2500     8.89802E-03


end timestep


start timestep kper="2" kstp="28" mode="normal"

 UBDSV1 SAVING  STORAGE-AQUEOUS ON UNIT   1029 AT TIME STEP     28, STRESS PERIOD      2
 UBDSV1 SAVING     FLOW-JA-FACE ON UNIT   1029 AT TIME STEP     28, STRESS PERIOD      2
 UBDSV06 SAVING  SOURCE-SINK MIX IN MODEL GWT_RIVERBASE    PACKAGE GWT_RIVERBASE   CONNECTED TO MODEL GWT_RIVERBASE    PACKAGE SSM              ON UNIT   1029 AT TIME STEP     28, STRESS PERIOD      2
 UBDSV06 SAVING              CNC IN MODEL GWT_RIVERBASE    PACKAGE GWT_RIVERBASE   CONNECTED TO MODEL GWT_RIVERBASE    PACKAGE CNC_0            ON UNIT   1029 AT TIME STEP     28, STRESS PERIOD      2
1
  CONCENTRATION IN LAYER   1 AT END OF TIME STEP  28 IN STRESS PERIOD    2
  ---------------------------------------------------------------------------

                1               2               3               4               5               6               7               8               9              10
 ................................................................................................................................................................
   1      1.00000         1.00000         1.00000         1.00000         1.00000         1.00000         1.00000         1.00000         1.00000         1.00000    
   2     0.999993         1.00000        0.999993         1.00000         1.00000         1.00000         1.00000         1.00000         1.00000         1.00000    
   3      1.00000        0.999993         1.00000         1.00000         1.00000         1.00000         1.00000         1.00000         1.00000         1.00000    
   4      1.00000         1.00000        0.999992         1.00000         1.00000         1.00000         1.00000         1.00000         1.00000         1.00000    
   5      1.00000         1.00001         1.00000        0.999992        0.999992         1.00000         1.00000         1.00000         1.00000         1.00000    
   6      1.00001         10.0000         1.00000        0.999992         1.00000        0.999992         1.00000         1.00000         1.00000         1.00000    
   7      1.00001         10.0000         1.00000         1.00000         1.00000         1.00000        0.999991         1.00000         1.00000         1.00000    
   8      1.00000         1.00001         1.00000         1.00000         1.00000         1.00000         1.00000        0.999991        0.999991         1.00000    
   9      1.00000         1.00000         1.00000         1.00000         1.00000         1.00000         1.00000        0.999991         1.00000         1.00000    
  10      1.00000         1.00000         1.00000         1.00000         1.00000         1.00000         1.00000         1.00000         1.00000         1.00000    
  11      1.00000         1.00000         1.00000         1.00000         1.00000         1.00000         1.00000         1.00000         1.00000         1.00000    
  12      1.00000         1.00000         1.00000         1.00000         1.00000         1.00000         1.00000         1.00000         1.00000         1.00000    
  13      1.00000         1.00000         1.00000         1.00000         1.00000         1.00000         1.00000         1.00000         1.00000         1.00000    
  14      1.00000         1.00000         1.00000         1.00000         1.00000         1.00000         1.00000         1.00000         1.00000         1.00000    
  15      1.00000         1.00000         1.00000         1.00000         1.00000         1.00000         1.00000         1.00000         1.00000         1.00000    
1
  CONCENTRATION IN LAYER   2 AT END OF TIME STEP  28 IN STRESS PERIOD    2
  ---------------------------------------------------------------------------

                1               2               3               4               5               6               7               8               9              10
 ................................................................................................................................................................
   1      1.00000         1.00000         1.00000         1.00000         1.00000         1.00000         1.00000         1.00000         1.00000         1.00000    
   2      1.00000         1.00000         1.00000         1.00000         1.00000         1.00000         1.00000         1.00000         1.00000         1.00000    
   3      1.00000         1.00000         1.00000         1.00000         1.00000         1.00000         1.00000         1.00000         1.00000         1.00000    
   4      1.00000         1.00000         1.00000         1.00000         1.00000         1.00000         1.00000         1.00000         1.00000         1.00000    
   5      1.00000         1.00000         1.00000         1.00000         1.00000         1.00000         1.00000         1.00000         1.00000         1.00000    
   6      1.00000         1.00000         1.00000         1.00000         1.00000         1.00000         1.00000         1.00000         1.00000         1.00000    
   7      1.00000         1.00000         1.00000         1.00000         1.00000         1.00000         1.00000         1.00000         1.00000         1.00000    
   8      1.00000         1.00000         1.00000         1.00000         1.00000         1.00000         1.00000         1.00000         1.00000         1.00000    
   9      1.00000         1.00000         1.00000         1.00000         1.00000         1.00000         1.00000         1.00000         1.00000         1.00000    
  10      1.00000         1.00000         1.00000         1.00000         1.00000         1.00000         1.00000         1.00000         1.00000         1.00000    
  11      1.00000         1.00000         1.00000         1.00000         1.00000         1.00000         1.00000         1.00000         1.00000         1.00000    
  12      1.00000         1.00000         1.00000         1.00000         1.00000         1.00000         1.00000         1.00000         1.00000         1.00000    
  13      1.00000         1.00000         1.00000         1.00000         1.00000         1.00000         1.00000         1.00000         1.00000         1.00000    
  14      1.00000         1.00000         1.00000         1.00000         1.00000         1.00000         1.00000         1.00000         1.00000         1.00000    
  15      1.00000         1.00000         1.00000         1.00000         1.00000         1.00000         1.00000         1.00000         1.00000         1.00000    
1
  CONCENTRATION IN LAYER   3 AT END OF TIME STEP  28 IN STRESS PERIOD    2
  ---------------------------------------------------------------------------

                1               2               3               4               5               6               7               8               9              10
 ................................................................................................................................................................
   1      1.00000         1.00000         1.00000         1.00000         1.00000         1.00000         1.00000         1.00000         1.00000         1.00000    
   2      1.00000         1.00000         1.00000         1.00000         1.00000         1.00000         1.00000         1.00000         1.00000         1.00000    
   3      1.00000         1.00000         1.00000         1.00000         1.00000         1.00000         1.00000         1.00000         1.00000         1.00000    
   4      1.00000         1.00000         1.00000         1.00000         1.00000         1.00000         1.00000         1.00000         1.00000         1.00000    
   5      1.00000         1.00000         1.00000         1.00000         1.00000         1.00000         1.00000         1.00000         1.00000         1.00000    
   6      1.00000         1.00000         1.00000         1.00000         1.00000         1.00000         1.00000         1.00000         1.00000         1.00000    
   7      1.00000         1.00000         1.00000         1.00000         1.00000         1.00000         1.00000         1.00000         1.00000         1.00000    
   8      1.00000         1.00000         1.00000         1.00000         1.00000         1.00000         1.00000         1.00000         1.00000         1.00000    
   9      1.00000         1.00000         1.00000         1.00000         1.00000         1.00000         1.00000         1.00000         1.00000         1.00000    
  10      1.00000         1.00000         1.00000         1.00000         1.00000         1.00000         1.00000         1.00000         1.00000         1.00000    
  11      1.00000         1.00000         1.00000         1.00000         1.00000         1.00000         1.00000         1.00000         1.00000         1.00000    
  12      1.00000         1.00000         1.00000         1.00000         1.00000         1.00000         1.00000         1.00000         1.00000         1.00000    
  13      1.00000         1.00000         1.00000         1.00000         1.00000         1.00000         1.00000         1.00000         1.00000         1.00000    
  14      1.00000         1.00000         1.00000         1.00000         1.00000         1.00000         1.00000         1.00000         1.00000         1.00000    
  15      1.00000         1.00000         1.00000         1.00000         1.00000         1.00000         1.00000         1.00000         1.00000         1.00000    

 CONCENTRATION WILL BE SAVED ON UNIT 1030 AT END OF TIME STEP   28, STRESS PERIOD    2


  MASS BUDGET FOR ENTIRE MODEL AT END OF TIME STEP   28, STRESS PERIOD   2
  ---------------------------------------------------------------------------------------------------

     CUMULATIVE MASS      M       RATES FOR THIS TIME STEP      M/T          PACKAGE NAME    
     ------------------                 ------------------------                     ----------------

           IN:                                      IN:
           ---                                      ---
     STORAGE-AQUEOUS =           6.8287       STORAGE-AQUEOUS =           2.0475     MST                              
                 RIV =           0.0000                   RIV =           0.0000     SSM_RIV-1                        
                 CHD =           0.0000                   CHD =           0.0000     SSM_CHD-1                        
                 CNC =           2.8488                   CNC =           0.8524     CNC_0                            

            TOTAL IN =           9.6774              TOTAL IN =           2.8999

          OUT:                                     OUT:
          ----                                     ----
     STORAGE-AQUEOUS =           2.9996       STORAGE-AQUEOUS =           0.8965     MST                              
                 RIV =           0.0000                   RIV =           0.0000     SSM_RIV-1                        
                 CHD =           6.4197                   CHD =           1.9259     SSM_CHD-1                        
                 CNC =           0.2581                   CNC =       7.7436E-02     CNC_0                            

           TOTAL OUT =           9.6774             TOTAL OUT =           2.8999

            IN - OUT =      -1.9056E-10              IN - OUT =      -1.1469E-09

 PERCENT DISCREPANCY =          -0.00     PERCENT DISCREPANCY =          -0.00




         TIME SUMMARY AT END OF TIME STEP   28 IN STRESS PERIOD    2
                    SECONDS     MINUTES      HOURS       DAYS        YEARS
                    -----------------------------------------------------------
   TIME STEP LENGTH  7200.0      120.00      2.0000     8.33333E-02 2.28154E-04
 STRESS PERIOD TIME 2.01600E+05  3360.0      56.000      2.3333     6.38832E-03
         TOTAL TIME 2.88000E+05  4800.0      80.000      3.3333     9.12617E-03


end timestep


start timestep kper="2" kstp="29" mode="normal"

 UBDSV1 SAVING  STORAGE-AQUEOUS ON UNIT   1029 AT TIME STEP     29, STRESS PERIOD      2
 UBDSV1 SAVING     FLOW-JA-FACE ON UNIT   1029 AT TIME STEP     29, STRESS PERIOD      2
 UBDSV06 SAVING  SOURCE-SINK MIX IN MODEL GWT_RIVERBASE    PACKAGE GWT_RIVERBASE   CONNECTED TO MODEL GWT_RIVERBASE    PACKAGE SSM              ON UNIT   1029 AT TIME STEP     29, STRESS PERIOD      2
 UBDSV06 SAVING              CNC IN MODEL GWT_RIVERBASE    PACKAGE GWT_RIVERBASE   CONNECTED TO MODEL GWT_RIVERBASE    PACKAGE CNC_0            ON UNIT   1029 AT TIME STEP     29, STRESS PERIOD      2
1
  CONCENTRATION IN LAYER   1 AT END OF TIME STEP  29 IN STRESS PERIOD    2
  ---------------------------------------------------------------------------

                1               2               3               4               5               6               7               8               9              10
 ................................................................................................................................................................
   1      1.00000         1.00000         1.00000         1.00000         1.00000         1.00000         1.00000         1.00000         1.00000         1.00000    
   2     0.999993         1.00000        0.999993         1.00000         1.00000         1.00000         1.00000         1.00000         1.00000         1.00000    
   3      1.00000        0.999992         1.00000         1.00000         1.00000         1.00000         1.00000         1.00000         1.00000         1.00000    
   4      1.00000         1.00000        0.999992         1.00000         1.00000         1.00000         1.00000         1.00000         1.00000         1.00000    
   5      1.00000         1.00001         1.00000        0.999992        0.999992         1.00000         1.00000         1.00000         1.00000         1.00000    
   6      1.00001         10.0000         1.00000        0.999992         1.00000        0.999991         1.00000         1.00000         1.00000         1.00000    
   7      1.00001         10.0000         1.00000         1.00000         1.00000         1.00000        0.999991         1.00000         1.00000         1.00000    
   8      1.00000         1.00001         1.00000         1.00000         1.00000         1.00000         1.00000        0.999991        0.999991         1.00000    
   9      1.00000         1.00000         1.00000         1.00000         1.00000         1.00000         1.00000        0.999991         1.00000         1.00000    
  10      1.00000         1.00000         1.00000         1.00000         1.00000         1.00000         1.00000         1.00000         1.00000         1.00000    
  11      1.00000         1.00000         1.00000         1.00000         1.00000         1.00000         1.00000         1.00000         1.00000         1.00000    
  12      1.00000         1.00000         1.00000         1.00000         1.00000         1.00000         1.00000         1.00000         1.00000         1.00000    
  13      1.00000         1.00000         1.00000         1.00000         1.00000         1.00000         1.00000         1.00000         1.00000         1.00000    
  14      1.00000         1.00000         1.00000         1.00000         1.00000         1.00000         1.00000         1.00000         1.00000         1.00000    
  15      1.00000         1.00000         1.00000         1.00000         1.00000         1.00000         1.00000         1.00000         1.00000         1.00000    
1
  CONCENTRATION IN LAYER   2 AT END OF TIME STEP  29 IN STRESS PERIOD    2
  ---------------------------------------------------------------------------

                1               2               3               4               5               6               7               8               9              10
 ................................................................................................................................................................
   1      1.00000         1.00000         1.00000         1.00000         1.00000         1.00000         1.00000         1.00000         1.00000         1.00000    
   2      1.00000         1.00000         1.00000         1.00000         1.00000         1.00000         1.00000         1.00000         1.00000         1.00000    
   3      1.00000         1.00000         1.00000         1.00000         1.00000         1.00000         1.00000         1.00000         1.00000         1.00000    
   4      1.00000         1.00000         1.00000         1.00000         1.00000         1.00000         1.00000         1.00000         1.00000         1.00000    
   5      1.00000         1.00000         1.00000         1.00000         1.00000         1.00000         1.00000         1.00000         1.00000         1.00000    
   6      1.00000         1.00000         1.00000         1.00000         1.00000         1.00000         1.00000         1.00000         1.00000         1.00000    
   7      1.00000         1.00000         1.00000         1.00000         1.00000         1.00000         1.00000         1.00000         1.00000         1.00000    
   8      1.00000         1.00000         1.00000         1.00000         1.00000         1.00000         1.00000         1.00000         1.00000         1.00000    
   9      1.00000         1.00000         1.00000         1.00000         1.00000         1.00000         1.00000         1.00000         1.00000         1.00000    
  10      1.00000         1.00000         1.00000         1.00000         1.00000         1.00000         1.00000         1.00000         1.00000         1.00000    
  11      1.00000         1.00000         1.00000         1.00000         1.00000         1.00000         1.00000         1.00000         1.00000         1.00000    
  12      1.00000         1.00000         1.00000         1.00000         1.00000         1.00000         1.00000         1.00000         1.00000         1.00000    
  13      1.00000         1.00000         1.00000         1.00000         1.00000         1.00000         1.00000         1.00000         1.00000         1.00000    
  14      1.00000         1.00000         1.00000         1.00000         1.00000         1.00000         1.00000         1.00000         1.00000         1.00000    
  15      1.00000         1.00000         1.00000         1.00000         1.00000         1.00000         1.00000         1.00000         1.00000         1.00000    
1
  CONCENTRATION IN LAYER   3 AT END OF TIME STEP  29 IN STRESS PERIOD    2
  ---------------------------------------------------------------------------

                1               2               3               4               5               6               7               8               9              10
 ................................................................................................................................................................
   1      1.00000         1.00000         1.00000         1.00000         1.00000         1.00000         1.00000         1.00000         1.00000         1.00000    
   2      1.00000         1.00000         1.00000         1.00000         1.00000         1.00000         1.00000         1.00000         1.00000         1.00000    
   3      1.00000         1.00000         1.00000         1.00000         1.00000         1.00000         1.00000         1.00000         1.00000         1.00000    
   4      1.00000         1.00000         1.00000         1.00000         1.00000         1.00000         1.00000         1.00000         1.00000         1.00000    
   5      1.00000         1.00000         1.00000         1.00000         1.00000         1.00000         1.00000         1.00000         1.00000         1.00000    
   6      1.00000         1.00000         1.00000         1.00000         1.00000         1.00000         1.00000         1.00000         1.00000         1.00000    
   7      1.00000         1.00000         1.00000         1.00000         1.00000         1.00000         1.00000         1.00000         1.00000         1.00000    
   8      1.00000         1.00000         1.00000         1.00000         1.00000         1.00000         1.00000         1.00000         1.00000         1.00000    
   9      1.00000         1.00000         1.00000         1.00000         1.00000         1.00000         1.00000         1.00000         1.00000         1.00000    
  10      1.00000         1.00000         1.00000         1.00000         1.00000         1.00000         1.00000         1.00000         1.00000         1.00000    
  11      1.00000         1.00000         1.00000         1.00000         1.00000         1.00000         1.00000         1.00000         1.00000         1.00000    
  12      1.00000         1.00000         1.00000         1.00000         1.00000         1.00000         1.00000         1.00000         1.00000         1.00000    
  13      1.00000         1.00000         1.00000         1.00000         1.00000         1.00000         1.00000         1.00000         1.00000         1.00000    
  14      1.00000         1.00000         1.00000         1.00000         1.00000         1.00000         1.00000         1.00000         1.00000         1.00000    
  15      1.00000         1.00000         1.00000         1.00000         1.00000         1.00000         1.00000         1.00000         1.00000         1.00000    

 CONCENTRATION WILL BE SAVED ON UNIT 1030 AT END OF TIME STEP   29, STRESS PERIOD    2


  MASS BUDGET FOR ENTIRE MODEL AT END OF TIME STEP   29, STRESS PERIOD   2
  ---------------------------------------------------------------------------------------------------

     CUMULATIVE MASS      M       RATES FOR THIS TIME STEP      M/T          PACKAGE NAME    
     ------------------                 ------------------------                     ----------------

           IN:                                      IN:
           ---                                      ---
     STORAGE-AQUEOUS =           6.9993       STORAGE-AQUEOUS =           2.0475     MST                              
                 RIV =           0.0000                   RIV =           0.0000     SSM_RIV-1                        
                 CHD =           0.0000                   CHD =           0.0000     SSM_CHD-1                        
                 CNC =           2.9198                   CNC =           0.8524     CNC_0                            

            TOTAL IN =           9.9191              TOTAL IN =           2.8999

          OUT:                                     OUT:
          ----                                     ----
     STORAGE-AQUEOUS =           3.0743       STORAGE-AQUEOUS =           0.8965     MST                              
                 RIV =           0.0000                   RIV =           0.0000     SSM_RIV-1                        
                 CHD =           6.5802                   CHD =           1.9259     SSM_CHD-1                        
                 CNC =           0.2646                   CNC =       7.7436E-02     CNC_0                            

           TOTAL OUT =           9.9191             TOTAL OUT =           2.8999

            IN - OUT =      -2.2233E-10              IN - OUT =      -3.8122E-10

 PERCENT DISCREPANCY =          -0.00     PERCENT DISCREPANCY =          -0.00




         TIME SUMMARY AT END OF TIME STEP   29 IN STRESS PERIOD    2
                    SECONDS     MINUTES      HOURS       DAYS        YEARS
                    -----------------------------------------------------------
   TIME STEP LENGTH  7200.0      120.00      2.0000     8.33333E-02 2.28154E-04
 STRESS PERIOD TIME 2.08800E+05  3480.0      58.000      2.4167     6.61647E-03
         TOTAL TIME 2.95200E+05  4920.0      82.000      3.4167     9.35432E-03


end timestep


start timestep kper="2" kstp="30" mode="normal"

 UBDSV1 SAVING  STORAGE-AQUEOUS ON UNIT   1029 AT TIME STEP     30, STRESS PERIOD      2
 UBDSV1 SAVING     FLOW-JA-FACE ON UNIT   1029 AT TIME STEP     30, STRESS PERIOD      2
 UBDSV06 SAVING  SOURCE-SINK MIX IN MODEL GWT_RIVERBASE    PACKAGE GWT_RIVERBASE   CONNECTED TO MODEL GWT_RIVERBASE    PACKAGE SSM              ON UNIT   1029 AT TIME STEP     30, STRESS PERIOD      2
 UBDSV06 SAVING              CNC IN MODEL GWT_RIVERBASE    PACKAGE GWT_RIVERBASE   CONNECTED TO MODEL GWT_RIVERBASE    PACKAGE CNC_0            ON UNIT   1029 AT TIME STEP     30, STRESS PERIOD      2
1
  CONCENTRATION IN LAYER   1 AT END OF TIME STEP  30 IN STRESS PERIOD    2
  ---------------------------------------------------------------------------

                1               2               3               4               5               6               7               8               9              10
 ................................................................................................................................................................
   1      1.00000         1.00000         1.00000         1.00000         1.00000         1.00000         1.00000         1.00000         1.00000         1.00000    
   2     0.999993         1.00000        0.999992         1.00000         1.00000         1.00000         1.00000         1.00000         1.00000         1.00000    
   3      1.00000        0.999992         1.00000         1.00000         1.00000         1.00000         1.00000         1.00000         1.00000         1.00000    
   4      1.00000         1.00000        0.999992         1.00000         1.00000         1.00000         1.00000         1.00000         1.00000         1.00000    
   5      1.00000         1.00001         1.00000        0.999992        0.999991         1.00000         1.00000         1.00000         1.00000         1.00000    
   6      1.00001         10.0000         1.00000        0.999992         1.00000        0.999991         1.00000         1.00000         1.00000         1.00000    
   7      1.00001         10.0000         1.00000         1.00000         1.00000         1.00000        0.999991         1.00000         1.00000         1.00000    
   8      1.00000         1.00001         1.00000         1.00000         1.00000         1.00000         1.00000        0.999991        0.999990         1.00000    
   9      1.00000         1.00000         1.00000         1.00000         1.00000         1.00000         1.00000        0.999991         1.00000         1.00000    
  10      1.00000         1.00000         1.00000         1.00000         1.00000         1.00000         1.00000         1.00000         1.00000         1.00000    
  11      1.00000         1.00000         1.00000         1.00000         1.00000         1.00000         1.00000         1.00000         1.00000         1.00000    
  12      1.00000         1.00000         1.00000         1.00000         1.00000         1.00000         1.00000         1.00000         1.00000         1.00000    
  13      1.00000         1.00000         1.00000         1.00000         1.00000         1.00000         1.00000         1.00000         1.00000         1.00000    
  14      1.00000         1.00000         1.00000         1.00000         1.00000         1.00000         1.00000         1.00000         1.00000         1.00000    
  15      1.00000         1.00000         1.00000         1.00000         1.00000         1.00000         1.00000         1.00000         1.00000         1.00000    
1
  CONCENTRATION IN LAYER   2 AT END OF TIME STEP  30 IN STRESS PERIOD    2
  ---------------------------------------------------------------------------

                1               2               3               4               5               6               7               8               9              10
 ................................................................................................................................................................
   1      1.00000         1.00000         1.00000         1.00000         1.00000         1.00000         1.00000         1.00000         1.00000         1.00000    
   2      1.00000         1.00000         1.00000         1.00000         1.00000         1.00000         1.00000         1.00000         1.00000         1.00000    
   3      1.00000         1.00000         1.00000         1.00000         1.00000         1.00000         1.00000         1.00000         1.00000         1.00000    
   4      1.00000         1.00000         1.00000         1.00000         1.00000         1.00000         1.00000         1.00000         1.00000         1.00000    
   5      1.00000         1.00000         1.00000         1.00000         1.00000         1.00000         1.00000         1.00000         1.00000         1.00000    
   6      1.00000         1.00000         1.00000         1.00000         1.00000         1.00000         1.00000         1.00000         1.00000         1.00000    
   7      1.00000         1.00000         1.00000         1.00000         1.00000         1.00000         1.00000         1.00000         1.00000         1.00000    
   8      1.00000         1.00000         1.00000         1.00000         1.00000         1.00000         1.00000         1.00000         1.00000         1.00000    
   9      1.00000         1.00000         1.00000         1.00000         1.00000         1.00000         1.00000         1.00000         1.00000         1.00000    
  10      1.00000         1.00000         1.00000         1.00000         1.00000         1.00000         1.00000         1.00000         1.00000         1.00000    
  11      1.00000         1.00000         1.00000         1.00000         1.00000         1.00000         1.00000         1.00000         1.00000         1.00000    
  12      1.00000         1.00000         1.00000         1.00000         1.00000         1.00000         1.00000         1.00000         1.00000         1.00000    
  13      1.00000         1.00000         1.00000         1.00000         1.00000         1.00000         1.00000         1.00000         1.00000         1.00000    
  14      1.00000         1.00000         1.00000         1.00000         1.00000         1.00000         1.00000         1.00000         1.00000         1.00000    
  15      1.00000         1.00000         1.00000         1.00000         1.00000         1.00000         1.00000         1.00000         1.00000         1.00000    
1
  CONCENTRATION IN LAYER   3 AT END OF TIME STEP  30 IN STRESS PERIOD    2
  ---------------------------------------------------------------------------

                1               2               3               4               5               6               7               8               9              10
 ................................................................................................................................................................
   1      1.00000         1.00000         1.00000         1.00000         1.00000         1.00000         1.00000         1.00000         1.00000         1.00000    
   2      1.00000         1.00000         1.00000         1.00000         1.00000         1.00000         1.00000         1.00000         1.00000         1.00000    
   3      1.00000         1.00000         1.00000         1.00000         1.00000         1.00000         1.00000         1.00000         1.00000         1.00000    
   4      1.00000         1.00000         1.00000         1.00000         1.00000         1.00000         1.00000         1.00000         1.00000         1.00000    
   5      1.00000         1.00000         1.00000         1.00000         1.00000         1.00000         1.00000         1.00000         1.00000         1.00000    
   6      1.00000         1.00000         1.00000         1.00000         1.00000         1.00000         1.00000         1.00000         1.00000         1.00000    
   7      1.00000         1.00000         1.00000         1.00000         1.00000         1.00000         1.00000         1.00000         1.00000         1.00000    
   8      1.00000         1.00000         1.00000         1.00000         1.00000         1.00000         1.00000         1.00000         1.00000         1.00000    
   9      1.00000         1.00000         1.00000         1.00000         1.00000         1.00000         1.00000         1.00000         1.00000         1.00000    
  10      1.00000         1.00000         1.00000         1.00000         1.00000         1.00000         1.00000         1.00000         1.00000         1.00000    
  11      1.00000         1.00000         1.00000         1.00000         1.00000         1.00000         1.00000         1.00000         1.00000         1.00000    
  12      1.00000         1.00000         1.00000         1.00000         1.00000         1.00000         1.00000         1.00000         1.00000         1.00000    
  13      1.00000         1.00000         1.00000         1.00000         1.00000         1.00000         1.00000         1.00000         1.00000         1.00000    
  14      1.00000         1.00000         1.00000         1.00000         1.00000         1.00000         1.00000         1.00000         1.00000         1.00000    
  15      1.00000         1.00000         1.00000         1.00000         1.00000         1.00000         1.00000         1.00000         1.00000         1.00000    

 CONCENTRATION WILL BE SAVED ON UNIT 1030 AT END OF TIME STEP   30, STRESS PERIOD    2


  MASS BUDGET FOR ENTIRE MODEL AT END OF TIME STEP   30, STRESS PERIOD   2
  ---------------------------------------------------------------------------------------------------

     CUMULATIVE MASS      M       RATES FOR THIS TIME STEP      M/T          PACKAGE NAME    
     ------------------                 ------------------------                     ----------------

           IN:                                      IN:
           ---                                      ---
     STORAGE-AQUEOUS =           7.1699       STORAGE-AQUEOUS =           2.0475     MST                              
                 RIV =           0.0000                   RIV =           0.0000     SSM_RIV-1                        
                 CHD =           0.0000                   CHD =           0.0000     SSM_CHD-1                        
                 CNC =           2.9908                   CNC =           0.8524     CNC_0                            

            TOTAL IN =          10.1608              TOTAL IN =           2.8999

          OUT:                                     OUT:
          ----                                     ----
     STORAGE-AQUEOUS =           3.1490       STORAGE-AQUEOUS =           0.8965     MST                              
                 RIV =           0.0000                   RIV =           0.0000     SSM_RIV-1                        
                 CHD =           6.7407                   CHD =           1.9259     SSM_CHD-1                        
                 CNC =           0.2710                   CNC =       7.7436E-02     CNC_0                            

           TOTAL OUT =          10.1608             TOTAL OUT =           2.8999

            IN - OUT =      -1.8213E-10              IN - OUT =       4.8240E-10

 PERCENT DISCREPANCY =          -0.00     PERCENT DISCREPANCY =           0.00




         TIME SUMMARY AT END OF TIME STEP   30 IN STRESS PERIOD    2
                    SECONDS     MINUTES      HOURS       DAYS        YEARS
                    -----------------------------------------------------------
   TIME STEP LENGTH  7200.0      120.00      2.0000     8.33333E-02 2.28154E-04
 STRESS PERIOD TIME 2.16000E+05  3600.0      60.000      2.5000     6.84463E-03
         TOTAL TIME 3.02400E+05  5040.0      84.000      3.5000     9.58248E-03


end timestep


start timestep kper="2" kstp="31" mode="normal"

 UBDSV1 SAVING  STORAGE-AQUEOUS ON UNIT   1029 AT TIME STEP     31, STRESS PERIOD      2
 UBDSV1 SAVING     FLOW-JA-FACE ON UNIT   1029 AT TIME STEP     31, STRESS PERIOD      2
 UBDSV06 SAVING  SOURCE-SINK MIX IN MODEL GWT_RIVERBASE    PACKAGE GWT_RIVERBASE   CONNECTED TO MODEL GWT_RIVERBASE    PACKAGE SSM              ON UNIT   1029 AT TIME STEP     31, STRESS PERIOD      2
 UBDSV06 SAVING              CNC IN MODEL GWT_RIVERBASE    PACKAGE GWT_RIVERBASE   CONNECTED TO MODEL GWT_RIVERBASE    PACKAGE CNC_0            ON UNIT   1029 AT TIME STEP     31, STRESS PERIOD      2
1
  CONCENTRATION IN LAYER   1 AT END OF TIME STEP  31 IN STRESS PERIOD    2
  ---------------------------------------------------------------------------

                1               2               3               4               5               6               7               8               9              10
 ................................................................................................................................................................
   1      1.00000         1.00000         1.00000         1.00000         1.00000         1.00000         1.00000         1.00000         1.00000         1.00000    
   2     0.999992         1.00000        0.999992         1.00000         1.00000         1.00000         1.00000         1.00000         1.00000         1.00000    
   3      1.00000        0.999992         1.00000         1.00000         1.00000         1.00000         1.00000         1.00000         1.00000         1.00000    
   4      1.00000         1.00000        0.999992         1.00000         1.00000         1.00000         1.00000         1.00000         1.00000         1.00000    
   5      1.00000         1.00001         1.00000        0.999992        0.999991         1.00000         1.00000         1.00000         1.00000         1.00000    
   6      1.00001         10.0000         1.00000        0.999991         1.00000        0.999991         1.00000         1.00000         1.00000         1.00000    
   7      1.00001         10.0000         1.00000         1.00000         1.00000         1.00000        0.999991         1.00000         1.00000         1.00000    
   8      1.00000         1.00001         1.00000         1.00000         1.00000         1.00000         1.00000        0.999991        0.999990         1.00000    
   9      1.00000         1.00000         1.00000         1.00000         1.00000         1.00000         1.00000        0.999990         1.00000         1.00000    
  10      1.00000         1.00000         1.00000         1.00000         1.00000         1.00000         1.00000         1.00000         1.00000         1.00000    
  11      1.00000         1.00000         1.00000         1.00000         1.00000         1.00000         1.00000         1.00000         1.00000         1.00000    
  12      1.00000         1.00000         1.00000         1.00000         1.00000         1.00000         1.00000         1.00000         1.00000         1.00000    
  13      1.00000         1.00000         1.00000         1.00000         1.00000         1.00000         1.00000         1.00000         1.00000         1.00000    
  14      1.00000         1.00000         1.00000         1.00000         1.00000         1.00000         1.00000         1.00000         1.00000         1.00000    
  15      1.00000         1.00000         1.00000         1.00000         1.00000         1.00000         1.00000         1.00000         1.00000         1.00000    
1
  CONCENTRATION IN LAYER   2 AT END OF TIME STEP  31 IN STRESS PERIOD    2
  ---------------------------------------------------------------------------

                1               2               3               4               5               6               7               8               9              10
 ................................................................................................................................................................
   1      1.00000         1.00000         1.00000         1.00000         1.00000         1.00000         1.00000         1.00000         1.00000         1.00000    
   2      1.00000         1.00000         1.00000         1.00000         1.00000         1.00000         1.00000         1.00000         1.00000         1.00000    
   3      1.00000         1.00000         1.00000         1.00000         1.00000         1.00000         1.00000         1.00000         1.00000         1.00000    
   4      1.00000         1.00000         1.00000         1.00000         1.00000         1.00000         1.00000         1.00000         1.00000         1.00000    
   5      1.00000         1.00000         1.00000         1.00000         1.00000         1.00000         1.00000         1.00000         1.00000         1.00000    
   6      1.00000         1.00000         1.00000         1.00000         1.00000         1.00000         1.00000         1.00000         1.00000         1.00000    
   7      1.00000         1.00000         1.00000         1.00000         1.00000         1.00000         1.00000         1.00000         1.00000         1.00000    
   8      1.00000         1.00000         1.00000         1.00000         1.00000         1.00000         1.00000         1.00000         1.00000         1.00000    
   9      1.00000         1.00000         1.00000         1.00000         1.00000         1.00000         1.00000         1.00000         1.00000         1.00000    
  10      1.00000         1.00000         1.00000         1.00000         1.00000         1.00000         1.00000         1.00000         1.00000         1.00000    
  11      1.00000         1.00000         1.00000         1.00000         1.00000         1.00000         1.00000         1.00000         1.00000         1.00000    
  12      1.00000         1.00000         1.00000         1.00000         1.00000         1.00000         1.00000         1.00000         1.00000         1.00000    
  13      1.00000         1.00000         1.00000         1.00000         1.00000         1.00000         1.00000         1.00000         1.00000         1.00000    
  14      1.00000         1.00000         1.00000         1.00000         1.00000         1.00000         1.00000         1.00000         1.00000         1.00000    
  15      1.00000         1.00000         1.00000         1.00000         1.00000         1.00000         1.00000         1.00000         1.00000         1.00000    
1
  CONCENTRATION IN LAYER   3 AT END OF TIME STEP  31 IN STRESS PERIOD    2
  ---------------------------------------------------------------------------

                1               2               3               4               5               6               7               8               9              10
 ................................................................................................................................................................
   1      1.00000         1.00000         1.00000         1.00000         1.00000         1.00000         1.00000         1.00000         1.00000         1.00000    
   2      1.00000         1.00000         1.00000         1.00000         1.00000         1.00000         1.00000         1.00000         1.00000         1.00000    
   3      1.00000         1.00000         1.00000         1.00000         1.00000         1.00000         1.00000         1.00000         1.00000         1.00000    
   4      1.00000         1.00000         1.00000         1.00000         1.00000         1.00000         1.00000         1.00000         1.00000         1.00000    
   5      1.00000         1.00000         1.00000         1.00000         1.00000         1.00000         1.00000         1.00000         1.00000         1.00000    
   6      1.00000         1.00000         1.00000         1.00000         1.00000         1.00000         1.00000         1.00000         1.00000         1.00000    
   7      1.00000         1.00000         1.00000         1.00000         1.00000         1.00000         1.00000         1.00000         1.00000         1.00000    
   8      1.00000         1.00000         1.00000         1.00000         1.00000         1.00000         1.00000         1.00000         1.00000         1.00000    
   9      1.00000         1.00000         1.00000         1.00000         1.00000         1.00000         1.00000         1.00000         1.00000         1.00000    
  10      1.00000         1.00000         1.00000         1.00000         1.00000         1.00000         1.00000         1.00000         1.00000         1.00000    
  11      1.00000         1.00000         1.00000         1.00000         1.00000         1.00000         1.00000         1.00000         1.00000         1.00000    
  12      1.00000         1.00000         1.00000         1.00000         1.00000         1.00000         1.00000         1.00000         1.00000         1.00000    
  13      1.00000         1.00000         1.00000         1.00000         1.00000         1.00000         1.00000         1.00000         1.00000         1.00000    
  14      1.00000         1.00000         1.00000         1.00000         1.00000         1.00000         1.00000         1.00000         1.00000         1.00000    
  15      1.00000         1.00000         1.00000         1.00000         1.00000         1.00000         1.00000         1.00000         1.00000         1.00000    

 CONCENTRATION WILL BE SAVED ON UNIT 1030 AT END OF TIME STEP   31, STRESS PERIOD    2


  MASS BUDGET FOR ENTIRE MODEL AT END OF TIME STEP   31, STRESS PERIOD   2
  ---------------------------------------------------------------------------------------------------

     CUMULATIVE MASS      M       RATES FOR THIS TIME STEP      M/T          PACKAGE NAME    
     ------------------                 ------------------------                     ----------------

           IN:                                      IN:
           ---                                      ---
     STORAGE-AQUEOUS =           7.3406       STORAGE-AQUEOUS =           2.0475     MST                              
                 RIV =           0.0000                   RIV =           0.0000     SSM_RIV-1                        
                 CHD =           0.0000                   CHD =           0.0000     SSM_CHD-1                        
                 CNC =           3.0619                   CNC =           0.8524     CNC_0                            

            TOTAL IN =          10.4024              TOTAL IN =           2.8999

          OUT:                                     OUT:
          ----                                     ----
     STORAGE-AQUEOUS =           3.2237       STORAGE-AQUEOUS =           0.8965     MST                              
                 RIV =           0.0000                   RIV =           0.0000     SSM_RIV-1                        
                 CHD =           6.9012                   CHD =           1.9259     SSM_CHD-1                        
                 CNC =           0.2775                   CNC =       7.7436E-02     CNC_0                            

           TOTAL OUT =          10.4024             TOTAL OUT =           2.8999

            IN - OUT =      -1.9248E-10              IN - OUT =      -1.2422E-10

 PERCENT DISCREPANCY =          -0.00     PERCENT DISCREPANCY =          -0.00




         TIME SUMMARY AT END OF TIME STEP   31 IN STRESS PERIOD    2
                    SECONDS     MINUTES      HOURS       DAYS        YEARS
                    -----------------------------------------------------------
   TIME STEP LENGTH  7200.0      120.00      2.0000     8.33333E-02 2.28154E-04
 STRESS PERIOD TIME 2.23200E+05  3720.0      62.000      2.5833     7.07278E-03
         TOTAL TIME 3.09600E+05  5160.0      86.000      3.5833     9.81063E-03


end timestep


start timestep kper="2" kstp="32" mode="normal"

 UBDSV1 SAVING  STORAGE-AQUEOUS ON UNIT   1029 AT TIME STEP     32, STRESS PERIOD      2
 UBDSV1 SAVING     FLOW-JA-FACE ON UNIT   1029 AT TIME STEP     32, STRESS PERIOD      2
 UBDSV06 SAVING  SOURCE-SINK MIX IN MODEL GWT_RIVERBASE    PACKAGE GWT_RIVERBASE   CONNECTED TO MODEL GWT_RIVERBASE    PACKAGE SSM              ON UNIT   1029 AT TIME STEP     32, STRESS PERIOD      2
 UBDSV06 SAVING              CNC IN MODEL GWT_RIVERBASE    PACKAGE GWT_RIVERBASE   CONNECTED TO MODEL GWT_RIVERBASE    PACKAGE CNC_0            ON UNIT   1029 AT TIME STEP     32, STRESS PERIOD      2
1
  CONCENTRATION IN LAYER   1 AT END OF TIME STEP  32 IN STRESS PERIOD    2
  ---------------------------------------------------------------------------

                1               2               3               4               5               6               7               8               9              10
 ................................................................................................................................................................
   1      1.00000         1.00000         1.00000         1.00000         1.00000         1.00000         1.00000         1.00000         1.00000         1.00000    
   2     0.999992         1.00000        0.999992         1.00000         1.00000         1.00000         1.00000         1.00000         1.00000         1.00000    
   3      1.00000        0.999992         1.00000         1.00000         1.00000         1.00000         1.00000         1.00000         1.00000         1.00000    
   4      1.00000         1.00000        0.999992         1.00000         1.00000         1.00000         1.00000         1.00000         1.00000         1.00000    
   5      1.00000         1.00001         1.00000        0.999991        0.999991         1.00000         1.00000         1.00000         1.00000         1.00000    
   6      1.00001         10.0000         1.00000        0.999991         1.00000        0.999991         1.00000         1.00000         1.00000         1.00000    
   7      1.00001         10.0000         1.00000         1.00000         1.00000         1.00000        0.999991         1.00000         1.00000         1.00000    
   8      1.00000         1.00001         1.00000         1.00000         1.00000         1.00000         1.00000        0.999990        0.999990         1.00000    
   9      1.00000         1.00000         1.00000         1.00000         1.00000         1.00000         1.00000        0.999990         1.00000         1.00000    
  10      1.00000         1.00000         1.00000         1.00000         1.00000         1.00000         1.00000         1.00000         1.00000         1.00000    
  11      1.00000         1.00000         1.00000         1.00000         1.00000         1.00000         1.00000         1.00000         1.00000         1.00000    
  12      1.00000         1.00000         1.00000         1.00000         1.00000         1.00000         1.00000         1.00000         1.00000         1.00000    
  13      1.00000         1.00000         1.00000         1.00000         1.00000         1.00000         1.00000         1.00000         1.00000         1.00000    
  14      1.00000         1.00000         1.00000         1.00000         1.00000         1.00000         1.00000         1.00000         1.00000         1.00000    
  15      1.00000         1.00000         1.00000         1.00000         1.00000         1.00000         1.00000         1.00000         1.00000         1.00000    
1
  CONCENTRATION IN LAYER   2 AT END OF TIME STEP  32 IN STRESS PERIOD    2
  ---------------------------------------------------------------------------

                1               2               3               4               5               6               7               8               9              10
 ................................................................................................................................................................
   1      1.00000         1.00000         1.00000         1.00000         1.00000         1.00000         1.00000         1.00000         1.00000         1.00000    
   2      1.00000         1.00000         1.00000         1.00000         1.00000         1.00000         1.00000         1.00000         1.00000         1.00000    
   3      1.00000         1.00000         1.00000         1.00000         1.00000         1.00000         1.00000         1.00000         1.00000         1.00000    
   4      1.00000         1.00000         1.00000         1.00000         1.00000         1.00000         1.00000         1.00000         1.00000         1.00000    
   5      1.00000         1.00000         1.00000         1.00000         1.00000         1.00000         1.00000         1.00000         1.00000         1.00000    
   6      1.00000         1.00000         1.00000         1.00000         1.00000         1.00000         1.00000         1.00000         1.00000         1.00000    
   7      1.00000         1.00000         1.00000         1.00000         1.00000         1.00000         1.00000         1.00000         1.00000         1.00000    
   8      1.00000         1.00000         1.00000         1.00000         1.00000         1.00000         1.00000         1.00000         1.00000         1.00000    
   9      1.00000         1.00000         1.00000         1.00000         1.00000         1.00000         1.00000         1.00000         1.00000         1.00000    
  10      1.00000         1.00000         1.00000         1.00000         1.00000         1.00000         1.00000         1.00000         1.00000         1.00000    
  11      1.00000         1.00000         1.00000         1.00000         1.00000         1.00000         1.00000         1.00000         1.00000         1.00000    
  12      1.00000         1.00000         1.00000         1.00000         1.00000         1.00000         1.00000         1.00000         1.00000         1.00000    
  13      1.00000         1.00000         1.00000         1.00000         1.00000         1.00000         1.00000         1.00000         1.00000         1.00000    
  14      1.00000         1.00000         1.00000         1.00000         1.00000         1.00000         1.00000         1.00000         1.00000         1.00000    
  15      1.00000         1.00000         1.00000         1.00000         1.00000         1.00000         1.00000         1.00000         1.00000         1.00000    
1
  CONCENTRATION IN LAYER   3 AT END OF TIME STEP  32 IN STRESS PERIOD    2
  ---------------------------------------------------------------------------

                1               2               3               4               5               6               7               8               9              10
 ................................................................................................................................................................
   1      1.00000         1.00000         1.00000         1.00000         1.00000         1.00000         1.00000         1.00000         1.00000         1.00000    
   2      1.00000         1.00000         1.00000         1.00000         1.00000         1.00000         1.00000         1.00000         1.00000         1.00000    
   3      1.00000         1.00000         1.00000         1.00000         1.00000         1.00000         1.00000         1.00000         1.00000         1.00000    
   4      1.00000         1.00000         1.00000         1.00000         1.00000         1.00000         1.00000         1.00000         1.00000         1.00000    
   5      1.00000         1.00000         1.00000         1.00000         1.00000         1.00000         1.00000         1.00000         1.00000         1.00000    
   6      1.00000         1.00000         1.00000         1.00000         1.00000         1.00000         1.00000         1.00000         1.00000         1.00000    
   7      1.00000         1.00000         1.00000         1.00000         1.00000         1.00000         1.00000         1.00000         1.00000         1.00000    
   8      1.00000         1.00000         1.00000         1.00000         1.00000         1.00000         1.00000         1.00000         1.00000         1.00000    
   9      1.00000         1.00000         1.00000         1.00000         1.00000         1.00000         1.00000         1.00000         1.00000         1.00000    
  10      1.00000         1.00000         1.00000         1.00000         1.00000         1.00000         1.00000         1.00000         1.00000         1.00000    
  11      1.00000         1.00000         1.00000         1.00000         1.00000         1.00000         1.00000         1.00000         1.00000         1.00000    
  12      1.00000         1.00000         1.00000         1.00000         1.00000         1.00000         1.00000         1.00000         1.00000         1.00000    
  13      1.00000         1.00000         1.00000         1.00000         1.00000         1.00000         1.00000         1.00000         1.00000         1.00000    
  14      1.00000         1.00000         1.00000         1.00000         1.00000         1.00000         1.00000         1.00000         1.00000         1.00000    
  15      1.00000         1.00000         1.00000         1.00000         1.00000         1.00000         1.00000         1.00000         1.00000         1.00000    

 CONCENTRATION WILL BE SAVED ON UNIT 1030 AT END OF TIME STEP   32, STRESS PERIOD    2


  MASS BUDGET FOR ENTIRE MODEL AT END OF TIME STEP   32, STRESS PERIOD   2
  ---------------------------------------------------------------------------------------------------

     CUMULATIVE MASS      M       RATES FOR THIS TIME STEP      M/T          PACKAGE NAME    
     ------------------                 ------------------------                     ----------------

           IN:                                      IN:
           ---                                      ---
     STORAGE-AQUEOUS =           7.5112       STORAGE-AQUEOUS =           2.0475     MST                              
                 RIV =           0.0000                   RIV =           0.0000     SSM_RIV-1                        
                 CHD =           0.0000                   CHD =           0.0000     SSM_CHD-1                        
                 CNC =           3.1329                   CNC =           0.8524     CNC_0                            

            TOTAL IN =          10.6441              TOTAL IN =           2.8999

          OUT:                                     OUT:
          ----                                     ----
     STORAGE-AQUEOUS =           3.2984       STORAGE-AQUEOUS =           0.8965     MST                              
                 RIV =           0.0000                   RIV =           0.0000     SSM_RIV-1                        
                 CHD =           7.0617                   CHD =           1.9259     SSM_CHD-1                        
                 CNC =           0.2839                   CNC =       7.7436E-02     CNC_0                            

           TOTAL OUT =          10.6441             TOTAL OUT =           2.8999

            IN - OUT =      -7.7462E-11              IN - OUT =       1.3802E-09

 PERCENT DISCREPANCY =          -0.00     PERCENT DISCREPANCY =           0.00




         TIME SUMMARY AT END OF TIME STEP   32 IN STRESS PERIOD    2
                    SECONDS     MINUTES      HOURS       DAYS        YEARS
                    -----------------------------------------------------------
   TIME STEP LENGTH  7200.0      120.00      2.0000     8.33333E-02 2.28154E-04
 STRESS PERIOD TIME 2.30400E+05  3840.0      64.000      2.6667     7.30094E-03
         TOTAL TIME 3.16800E+05  5280.0      88.000      3.6667     1.00388E-02


end timestep


start timestep kper="2" kstp="33" mode="normal"

 UBDSV1 SAVING  STORAGE-AQUEOUS ON UNIT   1029 AT TIME STEP     33, STRESS PERIOD      2
 UBDSV1 SAVING     FLOW-JA-FACE ON UNIT   1029 AT TIME STEP     33, STRESS PERIOD      2
 UBDSV06 SAVING  SOURCE-SINK MIX IN MODEL GWT_RIVERBASE    PACKAGE GWT_RIVERBASE   CONNECTED TO MODEL GWT_RIVERBASE    PACKAGE SSM              ON UNIT   1029 AT TIME STEP     33, STRESS PERIOD      2
 UBDSV06 SAVING              CNC IN MODEL GWT_RIVERBASE    PACKAGE GWT_RIVERBASE   CONNECTED TO MODEL GWT_RIVERBASE    PACKAGE CNC_0            ON UNIT   1029 AT TIME STEP     33, STRESS PERIOD      2
1
  CONCENTRATION IN LAYER   1 AT END OF TIME STEP  33 IN STRESS PERIOD    2
  ---------------------------------------------------------------------------

                1               2               3               4               5               6               7               8               9              10
 ................................................................................................................................................................
   1      1.00000         1.00000         1.00000         1.00000         1.00000         1.00000         1.00000         1.00000         1.00000         1.00000    
   2     0.999992         1.00000        0.999992         1.00000         1.00000         1.00000         1.00000         1.00000         1.00000         1.00000    
   3      1.00000        0.999992         1.00000         1.00000         1.00000         1.00000         1.00000         1.00000         1.00000         1.00000    
   4      1.00000         1.00000        0.999992         1.00000         1.00000         1.00000         1.00000         1.00000         1.00000         1.00000    
   5      1.00000         1.00001         1.00000        0.999991        0.999991         1.00000         1.00000         1.00000         1.00000         1.00000    
   6      1.00001         10.0000         1.00000        0.999991         1.00000        0.999991         1.00000         1.00000         1.00000         1.00000    
   7      1.00001         10.0000         1.00000         1.00000         1.00000         1.00000        0.999990         1.00000         1.00000         1.00000    
   8      1.00000         1.00001         1.00000         1.00000         1.00000         1.00000         1.00000        0.999990        0.999990         1.00000    
   9      1.00000         1.00000         1.00000         1.00000         1.00000         1.00000         1.00000        0.999990         1.00000         1.00000    
  10      1.00000         1.00000         1.00000         1.00000         1.00000         1.00000         1.00000         1.00000         1.00000         1.00000    
  11      1.00000         1.00000         1.00000         1.00000         1.00000         1.00000         1.00000         1.00000         1.00000         1.00000    
  12      1.00000         1.00000         1.00000         1.00000         1.00000         1.00000         1.00000         1.00000         1.00000         1.00000    
  13      1.00000         1.00000         1.00000         1.00000         1.00000         1.00000         1.00000         1.00000         1.00000         1.00000    
  14      1.00000         1.00000         1.00000         1.00000         1.00000         1.00000         1.00000         1.00000         1.00000         1.00000    
  15      1.00000         1.00000         1.00000         1.00000         1.00000         1.00000         1.00000         1.00000         1.00000         1.00000    
1
  CONCENTRATION IN LAYER   2 AT END OF TIME STEP  33 IN STRESS PERIOD    2
  ---------------------------------------------------------------------------

                1               2               3               4               5               6               7               8               9              10
 ................................................................................................................................................................
   1      1.00000         1.00000         1.00000         1.00000         1.00000         1.00000         1.00000         1.00000         1.00000         1.00000    
   2      1.00000         1.00000         1.00000         1.00000         1.00000         1.00000         1.00000         1.00000         1.00000         1.00000    
   3      1.00000         1.00000         1.00000         1.00000         1.00000         1.00000         1.00000         1.00000         1.00000         1.00000    
   4      1.00000         1.00000         1.00000         1.00000         1.00000         1.00000         1.00000         1.00000         1.00000         1.00000    
   5      1.00000         1.00000         1.00000         1.00000         1.00000         1.00000         1.00000         1.00000         1.00000         1.00000    
   6      1.00000         1.00000         1.00000         1.00000         1.00000         1.00000         1.00000         1.00000         1.00000         1.00000    
   7      1.00000         1.00000         1.00000         1.00000         1.00000         1.00000         1.00000         1.00000         1.00000         1.00000    
   8      1.00000         1.00000         1.00000         1.00000         1.00000         1.00000         1.00000         1.00000         1.00000         1.00000    
   9      1.00000         1.00000         1.00000         1.00000         1.00000         1.00000         1.00000         1.00000         1.00000         1.00000    
  10      1.00000         1.00000         1.00000         1.00000         1.00000         1.00000         1.00000         1.00000         1.00000         1.00000    
  11      1.00000         1.00000         1.00000         1.00000         1.00000         1.00000         1.00000         1.00000         1.00000         1.00000    
  12      1.00000         1.00000         1.00000         1.00000         1.00000         1.00000         1.00000         1.00000         1.00000         1.00000    
  13      1.00000         1.00000         1.00000         1.00000         1.00000         1.00000         1.00000         1.00000         1.00000         1.00000    
  14      1.00000         1.00000         1.00000         1.00000         1.00000         1.00000         1.00000         1.00000         1.00000         1.00000    
  15      1.00000         1.00000         1.00000         1.00000         1.00000         1.00000         1.00000         1.00000         1.00000         1.00000    
1
  CONCENTRATION IN LAYER   3 AT END OF TIME STEP  33 IN STRESS PERIOD    2
  ---------------------------------------------------------------------------

                1               2               3               4               5               6               7               8               9              10
 ................................................................................................................................................................
   1      1.00000         1.00000         1.00000         1.00000         1.00000         1.00000         1.00000         1.00000         1.00000         1.00000    
   2      1.00000         1.00000         1.00000         1.00000         1.00000         1.00000         1.00000         1.00000         1.00000         1.00000    
   3      1.00000         1.00000         1.00000         1.00000         1.00000         1.00000         1.00000         1.00000         1.00000         1.00000    
   4      1.00000         1.00000         1.00000         1.00000         1.00000         1.00000         1.00000         1.00000         1.00000         1.00000    
   5      1.00000         1.00000         1.00000         1.00000         1.00000         1.00000         1.00000         1.00000         1.00000         1.00000    
   6      1.00000         1.00000         1.00000         1.00000         1.00000         1.00000         1.00000         1.00000         1.00000         1.00000    
   7      1.00000         1.00000         1.00000         1.00000         1.00000         1.00000         1.00000         1.00000         1.00000         1.00000    
   8      1.00000         1.00000         1.00000         1.00000         1.00000         1.00000         1.00000         1.00000         1.00000         1.00000    
   9      1.00000         1.00000         1.00000         1.00000         1.00000         1.00000         1.00000         1.00000         1.00000         1.00000    
  10      1.00000         1.00000         1.00000         1.00000         1.00000         1.00000         1.00000         1.00000         1.00000         1.00000    
  11      1.00000         1.00000         1.00000         1.00000         1.00000         1.00000         1.00000         1.00000         1.00000         1.00000    
  12      1.00000         1.00000         1.00000         1.00000         1.00000         1.00000         1.00000         1.00000         1.00000         1.00000    
  13      1.00000         1.00000         1.00000         1.00000         1.00000         1.00000         1.00000         1.00000         1.00000         1.00000    
  14      1.00000         1.00000         1.00000         1.00000         1.00000         1.00000         1.00000         1.00000         1.00000         1.00000    
  15      1.00000         1.00000         1.00000         1.00000         1.00000         1.00000         1.00000         1.00000         1.00000         1.00000    

 CONCENTRATION WILL BE SAVED ON UNIT 1030 AT END OF TIME STEP   33, STRESS PERIOD    2


  MASS BUDGET FOR ENTIRE MODEL AT END OF TIME STEP   33, STRESS PERIOD   2
  ---------------------------------------------------------------------------------------------------

     CUMULATIVE MASS      M       RATES FOR THIS TIME STEP      M/T          PACKAGE NAME    
     ------------------                 ------------------------                     ----------------

           IN:                                      IN:
           ---                                      ---
     STORAGE-AQUEOUS =           7.6818       STORAGE-AQUEOUS =           2.0475     MST                              
                 RIV =           0.0000                   RIV =           0.0000     SSM_RIV-1                        
                 CHD =           0.0000                   CHD =           0.0000     SSM_CHD-1                        
                 CNC =           3.2039                   CNC =           0.8524     CNC_0                            

            TOTAL IN =          10.8857              TOTAL IN =           2.8999

          OUT:                                     OUT:
          ----                                     ----
     STORAGE-AQUEOUS =           3.3731       STORAGE-AQUEOUS =           0.8966     MST                              
                 RIV =           0.0000                   RIV =           0.0000     SSM_RIV-1                        
                 CHD =           7.2222                   CHD =           1.9259     SSM_CHD-1                        
                 CNC =           0.2904                   CNC =       7.7436E-02     CNC_0                            

           TOTAL OUT =          10.8857             TOTAL OUT =           2.8999

            IN - OUT =      -1.1671E-10              IN - OUT =      -4.7099E-10

 PERCENT DISCREPANCY =          -0.00     PERCENT DISCREPANCY =          -0.00




         TIME SUMMARY AT END OF TIME STEP   33 IN STRESS PERIOD    2
                    SECONDS     MINUTES      HOURS       DAYS        YEARS
                    -----------------------------------------------------------
   TIME STEP LENGTH  7200.0      120.00      2.0000     8.33333E-02 2.28154E-04
 STRESS PERIOD TIME 2.37600E+05  3960.0      66.000      2.7500     7.52909E-03
         TOTAL TIME 3.24000E+05  5400.0      90.000      3.7500     1.02669E-02


end timestep


start timestep kper="2" kstp="34" mode="normal"

 UBDSV1 SAVING  STORAGE-AQUEOUS ON UNIT   1029 AT TIME STEP     34, STRESS PERIOD      2
 UBDSV1 SAVING     FLOW-JA-FACE ON UNIT   1029 AT TIME STEP     34, STRESS PERIOD      2
 UBDSV06 SAVING  SOURCE-SINK MIX IN MODEL GWT_RIVERBASE    PACKAGE GWT_RIVERBASE   CONNECTED TO MODEL GWT_RIVERBASE    PACKAGE SSM              ON UNIT   1029 AT TIME STEP     34, STRESS PERIOD      2
 UBDSV06 SAVING              CNC IN MODEL GWT_RIVERBASE    PACKAGE GWT_RIVERBASE   CONNECTED TO MODEL GWT_RIVERBASE    PACKAGE CNC_0            ON UNIT   1029 AT TIME STEP     34, STRESS PERIOD      2
1
  CONCENTRATION IN LAYER   1 AT END OF TIME STEP  34 IN STRESS PERIOD    2
  ---------------------------------------------------------------------------

                1               2               3               4               5               6               7               8               9              10
 ................................................................................................................................................................
   1      1.00000         1.00000         1.00000         1.00000         1.00000         1.00000         1.00000         1.00000         1.00000         1.00000    
   2     0.999992         1.00000        0.999992         1.00000         1.00000         1.00000         1.00000         1.00000         1.00000         1.00000    
   3      1.00000        0.999992         1.00000         1.00000         1.00000         1.00000         1.00000         1.00000         1.00000         1.00000    
   4      1.00000         1.00000        0.999991         1.00000         1.00000         1.00000         1.00000         1.00000         1.00000         1.00000    
   5      1.00000         1.00001         1.00000        0.999991        0.999991         1.00000         1.00000         1.00000         1.00000         1.00000    
   6      1.00001         10.0000         1.00000        0.999991         1.00000        0.999990         1.00000         1.00000         1.00000         1.00000    
   7      1.00001         10.0000         1.00000         1.00000         1.00000         1.00000        0.999990         1.00000         1.00000         1.00000    
   8      1.00000         1.00001         1.00000         1.00000         1.00000         1.00000         1.00000        0.999990        0.999989         1.00000    
   9      1.00000         1.00000         1.00000         1.00000         1.00000         1.00000         1.00000        0.999990         1.00000         1.00000    
  10      1.00000         1.00000         1.00000         1.00000         1.00000         1.00000         1.00000         1.00000         1.00000         1.00000    
  11      1.00000         1.00000         1.00000         1.00000         1.00000         1.00000         1.00000         1.00000         1.00000         1.00000    
  12      1.00000         1.00000         1.00000         1.00000         1.00000         1.00000         1.00000         1.00000         1.00000         1.00000    
  13      1.00000         1.00000         1.00000         1.00000         1.00000         1.00000         1.00000         1.00000         1.00000         1.00000    
  14      1.00000         1.00000         1.00000         1.00000         1.00000         1.00000         1.00000         1.00000         1.00000         1.00000    
  15      1.00000         1.00000         1.00000         1.00000         1.00000         1.00000         1.00000         1.00000         1.00000         1.00000    
1
  CONCENTRATION IN LAYER   2 AT END OF TIME STEP  34 IN STRESS PERIOD    2
  ---------------------------------------------------------------------------

                1               2               3               4               5               6               7               8               9              10
 ................................................................................................................................................................
   1      1.00000         1.00000         1.00000         1.00000         1.00000         1.00000         1.00000         1.00000         1.00000         1.00000    
   2      1.00000         1.00000         1.00000         1.00000         1.00000         1.00000         1.00000         1.00000         1.00000         1.00000    
   3      1.00000         1.00000         1.00000         1.00000         1.00000         1.00000         1.00000         1.00000         1.00000         1.00000    
   4      1.00000         1.00000         1.00000         1.00000         1.00000         1.00000         1.00000         1.00000         1.00000         1.00000    
   5      1.00000         1.00000         1.00000         1.00000         1.00000         1.00000         1.00000         1.00000         1.00000         1.00000    
   6      1.00000         1.00000         1.00000         1.00000         1.00000         1.00000         1.00000         1.00000         1.00000         1.00000    
   7      1.00000         1.00000         1.00000         1.00000         1.00000         1.00000         1.00000         1.00000         1.00000         1.00000    
   8      1.00000         1.00000         1.00000         1.00000         1.00000         1.00000         1.00000         1.00000         1.00000         1.00000    
   9      1.00000         1.00000         1.00000         1.00000         1.00000         1.00000         1.00000         1.00000         1.00000         1.00000    
  10      1.00000         1.00000         1.00000         1.00000         1.00000         1.00000         1.00000         1.00000         1.00000         1.00000    
  11      1.00000         1.00000         1.00000         1.00000         1.00000         1.00000         1.00000         1.00000         1.00000         1.00000    
  12      1.00000         1.00000         1.00000         1.00000         1.00000         1.00000         1.00000         1.00000         1.00000         1.00000    
  13      1.00000         1.00000         1.00000         1.00000         1.00000         1.00000         1.00000         1.00000         1.00000         1.00000    
  14      1.00000         1.00000         1.00000         1.00000         1.00000         1.00000         1.00000         1.00000         1.00000         1.00000    
  15      1.00000         1.00000         1.00000         1.00000         1.00000         1.00000         1.00000         1.00000         1.00000         1.00000    
1
  CONCENTRATION IN LAYER   3 AT END OF TIME STEP  34 IN STRESS PERIOD    2
  ---------------------------------------------------------------------------

                1               2               3               4               5               6               7               8               9              10
 ................................................................................................................................................................
   1      1.00000         1.00000         1.00000         1.00000         1.00000         1.00000         1.00000         1.00000         1.00000         1.00000    
   2      1.00000         1.00000         1.00000         1.00000         1.00000         1.00000         1.00000         1.00000         1.00000         1.00000    
   3      1.00000         1.00000         1.00000         1.00000         1.00000         1.00000         1.00000         1.00000         1.00000         1.00000    
   4      1.00000         1.00000         1.00000         1.00000         1.00000         1.00000         1.00000         1.00000         1.00000         1.00000    
   5      1.00000         1.00000         1.00000         1.00000         1.00000         1.00000         1.00000         1.00000         1.00000         1.00000    
   6      1.00000         1.00000         1.00000         1.00000         1.00000         1.00000         1.00000         1.00000         1.00000         1.00000    
   7      1.00000         1.00000         1.00000         1.00000         1.00000         1.00000         1.00000         1.00000         1.00000         1.00000    
   8      1.00000         1.00000         1.00000         1.00000         1.00000         1.00000         1.00000         1.00000         1.00000         1.00000    
   9      1.00000         1.00000         1.00000         1.00000         1.00000         1.00000         1.00000         1.00000         1.00000         1.00000    
  10      1.00000         1.00000         1.00000         1.00000         1.00000         1.00000         1.00000         1.00000         1.00000         1.00000    
  11      1.00000         1.00000         1.00000         1.00000         1.00000         1.00000         1.00000         1.00000         1.00000         1.00000    
  12      1.00000         1.00000         1.00000         1.00000         1.00000         1.00000         1.00000         1.00000         1.00000         1.00000    
  13      1.00000         1.00000         1.00000         1.00000         1.00000         1.00000         1.00000         1.00000         1.00000         1.00000    
  14      1.00000         1.00000         1.00000         1.00000         1.00000         1.00000         1.00000         1.00000         1.00000         1.00000    
  15      1.00000         1.00000         1.00000         1.00000         1.00000         1.00000         1.00000         1.00000         1.00000         1.00000    

 CONCENTRATION WILL BE SAVED ON UNIT 1030 AT END OF TIME STEP   34, STRESS PERIOD    2


  MASS BUDGET FOR ENTIRE MODEL AT END OF TIME STEP   34, STRESS PERIOD   2
  ---------------------------------------------------------------------------------------------------

     CUMULATIVE MASS      M       RATES FOR THIS TIME STEP      M/T          PACKAGE NAME    
     ------------------                 ------------------------                     ----------------

           IN:                                      IN:
           ---                                      ---
     STORAGE-AQUEOUS =           7.8524       STORAGE-AQUEOUS =           2.0475     MST                              
                 RIV =           0.0000                   RIV =           0.0000     SSM_RIV-1                        
                 CHD =           0.0000                   CHD =           0.0000     SSM_CHD-1                        
                 CNC =           3.2750                   CNC =           0.8524     CNC_0                            

            TOTAL IN =          11.1274              TOTAL IN =           2.8999

          OUT:                                     OUT:
          ----                                     ----
     STORAGE-AQUEOUS =           3.4479       STORAGE-AQUEOUS =           0.8966     MST                              
                 RIV =           0.0000                   RIV =           0.0000     SSM_RIV-1                        
                 CHD =           7.3827                   CHD =           1.9259     SSM_CHD-1                        
                 CNC =           0.2968                   CNC =       7.7436E-02     CNC_0                            

           TOTAL OUT =          11.1274             TOTAL OUT =           2.8999

            IN - OUT =      -2.5004E-10              IN - OUT =      -1.6000E-09

 PERCENT DISCREPANCY =          -0.00     PERCENT DISCREPANCY =          -0.00




         TIME SUMMARY AT END OF TIME STEP   34 IN STRESS PERIOD    2
                    SECONDS     MINUTES      HOURS       DAYS        YEARS
                    -----------------------------------------------------------
   TIME STEP LENGTH  7200.0      120.00      2.0000     8.33333E-02 2.28154E-04
 STRESS PERIOD TIME 2.44800E+05  4080.0      68.000      2.8333     7.75724E-03
         TOTAL TIME 3.31200E+05  5520.0      92.000      3.8333     1.04951E-02


end timestep


start timestep kper="2" kstp="35" mode="normal"

 UBDSV1 SAVING  STORAGE-AQUEOUS ON UNIT   1029 AT TIME STEP     35, STRESS PERIOD      2
 UBDSV1 SAVING     FLOW-JA-FACE ON UNIT   1029 AT TIME STEP     35, STRESS PERIOD      2
 UBDSV06 SAVING  SOURCE-SINK MIX IN MODEL GWT_RIVERBASE    PACKAGE GWT_RIVERBASE   CONNECTED TO MODEL GWT_RIVERBASE    PACKAGE SSM              ON UNIT   1029 AT TIME STEP     35, STRESS PERIOD      2
 UBDSV06 SAVING              CNC IN MODEL GWT_RIVERBASE    PACKAGE GWT_RIVERBASE   CONNECTED TO MODEL GWT_RIVERBASE    PACKAGE CNC_0            ON UNIT   1029 AT TIME STEP     35, STRESS PERIOD      2
1
  CONCENTRATION IN LAYER   1 AT END OF TIME STEP  35 IN STRESS PERIOD    2
  ---------------------------------------------------------------------------

                1               2               3               4               5               6               7               8               9              10
 ................................................................................................................................................................
   1      1.00000         1.00000         1.00000         1.00000         1.00000         1.00000         1.00000         1.00000         1.00000         1.00000    
   2     0.999992         1.00000        0.999992         1.00000         1.00000         1.00000         1.00000         1.00000         1.00000         1.00000    
   3      1.00000        0.999991         1.00000         1.00000         1.00000         1.00000         1.00000         1.00000         1.00000         1.00000    
   4      1.00000         1.00000        0.999991         1.00000         1.00000         1.00000         1.00000         1.00000         1.00000         1.00000    
   5      1.00000         1.00001         1.00000        0.999991        0.999990         1.00000         1.00000         1.00000         1.00000         1.00000    
   6      1.00001         10.0000         1.00000        0.999991         1.00000        0.999990         1.00000         1.00000         1.00000         1.00000    
   7      1.00001         10.0000         1.00000         1.00000         1.00000         1.00000        0.999990         1.00000         1.00000         1.00000    
   8      1.00000         1.00001         1.00000         1.00000         1.00000         1.00000         1.00000        0.999990        0.999989         1.00000    
   9      1.00000         1.00000         1.00000         1.00000         1.00000         1.00000         1.00000        0.999989         1.00000         1.00000    
  10      1.00000         1.00000         1.00000         1.00000         1.00000         1.00000         1.00000         1.00000         1.00000         1.00000    
  11      1.00000         1.00000         1.00000         1.00000         1.00000         1.00000         1.00000         1.00000         1.00000         1.00000    
  12      1.00000         1.00000         1.00000         1.00000         1.00000         1.00000         1.00000         1.00000         1.00000         1.00000    
  13      1.00000         1.00000         1.00000         1.00000         1.00000         1.00000         1.00000         1.00000         1.00000         1.00000    
  14      1.00000         1.00000         1.00000         1.00000         1.00000         1.00000         1.00000         1.00000         1.00000         1.00000    
  15      1.00000         1.00000         1.00000         1.00000         1.00000         1.00000         1.00000         1.00000         1.00000         1.00000    
1
  CONCENTRATION IN LAYER   2 AT END OF TIME STEP  35 IN STRESS PERIOD    2
  ---------------------------------------------------------------------------

                1               2               3               4               5               6               7               8               9              10
 ................................................................................................................................................................
   1      1.00000         1.00000         1.00000         1.00000         1.00000         1.00000         1.00000         1.00000         1.00000         1.00000    
   2      1.00000         1.00000         1.00000         1.00000         1.00000         1.00000         1.00000         1.00000         1.00000         1.00000    
   3      1.00000         1.00000         1.00000         1.00000         1.00000         1.00000         1.00000         1.00000         1.00000         1.00000    
   4      1.00000         1.00000         1.00000         1.00000         1.00000         1.00000         1.00000         1.00000         1.00000         1.00000    
   5      1.00000         1.00000         1.00000         1.00000         1.00000         1.00000         1.00000         1.00000         1.00000         1.00000    
   6      1.00000         1.00000         1.00000         1.00000         1.00000         1.00000         1.00000         1.00000         1.00000         1.00000    
   7      1.00000         1.00000         1.00000         1.00000         1.00000         1.00000         1.00000         1.00000         1.00000         1.00000    
   8      1.00000         1.00000         1.00000         1.00000         1.00000         1.00000         1.00000         1.00000         1.00000         1.00000    
   9      1.00000         1.00000         1.00000         1.00000         1.00000         1.00000         1.00000         1.00000         1.00000         1.00000    
  10      1.00000         1.00000         1.00000         1.00000         1.00000         1.00000         1.00000         1.00000         1.00000         1.00000    
  11      1.00000         1.00000         1.00000         1.00000         1.00000         1.00000         1.00000         1.00000         1.00000         1.00000    
  12      1.00000         1.00000         1.00000         1.00000         1.00000         1.00000         1.00000         1.00000         1.00000         1.00000    
  13      1.00000         1.00000         1.00000         1.00000         1.00000         1.00000         1.00000         1.00000         1.00000         1.00000    
  14      1.00000         1.00000         1.00000         1.00000         1.00000         1.00000         1.00000         1.00000         1.00000         1.00000    
  15      1.00000         1.00000         1.00000         1.00000         1.00000         1.00000         1.00000         1.00000         1.00000         1.00000    
1
  CONCENTRATION IN LAYER   3 AT END OF TIME STEP  35 IN STRESS PERIOD    2
  ---------------------------------------------------------------------------

                1               2               3               4               5               6               7               8               9              10
 ................................................................................................................................................................
   1      1.00000         1.00000         1.00000         1.00000         1.00000         1.00000         1.00000         1.00000         1.00000         1.00000    
   2      1.00000         1.00000         1.00000         1.00000         1.00000         1.00000         1.00000         1.00000         1.00000         1.00000    
   3      1.00000         1.00000         1.00000         1.00000         1.00000         1.00000         1.00000         1.00000         1.00000         1.00000    
   4      1.00000         1.00000         1.00000         1.00000         1.00000         1.00000         1.00000         1.00000         1.00000         1.00000    
   5      1.00000         1.00000         1.00000         1.00000         1.00000         1.00000         1.00000         1.00000         1.00000         1.00000    
   6      1.00000         1.00000         1.00000         1.00000         1.00000         1.00000         1.00000         1.00000         1.00000         1.00000    
   7      1.00000         1.00000         1.00000         1.00000         1.00000         1.00000         1.00000         1.00000         1.00000         1.00000    
   8      1.00000         1.00000         1.00000         1.00000         1.00000         1.00000         1.00000         1.00000         1.00000         1.00000    
   9      1.00000         1.00000         1.00000         1.00000         1.00000         1.00000         1.00000         1.00000         1.00000         1.00000    
  10      1.00000         1.00000         1.00000         1.00000         1.00000         1.00000         1.00000         1.00000         1.00000         1.00000    
  11      1.00000         1.00000         1.00000         1.00000         1.00000         1.00000         1.00000         1.00000         1.00000         1.00000    
  12      1.00000         1.00000         1.00000         1.00000         1.00000         1.00000         1.00000         1.00000         1.00000         1.00000    
  13      1.00000         1.00000         1.00000         1.00000         1.00000         1.00000         1.00000         1.00000         1.00000         1.00000    
  14      1.00000         1.00000         1.00000         1.00000         1.00000         1.00000         1.00000         1.00000         1.00000         1.00000    
  15      1.00000         1.00000         1.00000         1.00000         1.00000         1.00000         1.00000         1.00000         1.00000         1.00000    

 CONCENTRATION WILL BE SAVED ON UNIT 1030 AT END OF TIME STEP   35, STRESS PERIOD    2


  MASS BUDGET FOR ENTIRE MODEL AT END OF TIME STEP   35, STRESS PERIOD   2
  ---------------------------------------------------------------------------------------------------

     CUMULATIVE MASS      M       RATES FOR THIS TIME STEP      M/T          PACKAGE NAME    
     ------------------                 ------------------------                     ----------------

           IN:                                      IN:
           ---                                      ---
     STORAGE-AQUEOUS =           8.0231       STORAGE-AQUEOUS =           2.0475     MST                              
                 RIV =           0.0000                   RIV =           0.0000     SSM_RIV-1                        
                 CHD =           0.0000                   CHD =           0.0000     SSM_CHD-1                        
                 CNC =           3.3460                   CNC =           0.8524     CNC_0                            

            TOTAL IN =          11.3691              TOTAL IN =           2.8999

          OUT:                                     OUT:
          ----                                     ----
     STORAGE-AQUEOUS =           3.5226       STORAGE-AQUEOUS =           0.8966     MST                              
                 RIV =           0.0000                   RIV =           0.0000     SSM_RIV-1                        
                 CHD =           7.5432                   CHD =           1.9259     SSM_CHD-1                        
                 CNC =           0.3033                   CNC =       7.7436E-02     CNC_0                            

           TOTAL OUT =          11.3691             TOTAL OUT =           2.8999

            IN - OUT =      -1.5030E-10              IN - OUT =       1.1969E-09

 PERCENT DISCREPANCY =          -0.00     PERCENT DISCREPANCY =           0.00




         TIME SUMMARY AT END OF TIME STEP   35 IN STRESS PERIOD    2
                    SECONDS     MINUTES      HOURS       DAYS        YEARS
                    -----------------------------------------------------------
   TIME STEP LENGTH  7200.0      120.00      2.0000     8.33333E-02 2.28154E-04
 STRESS PERIOD TIME 2.52000E+05  4200.0      70.000      2.9167     7.98540E-03
         TOTAL TIME 3.38400E+05  5640.0      94.000      3.9167     1.07232E-02


end timestep


start timestep kper="2" kstp="36" mode="normal"

 UBDSV1 SAVING  STORAGE-AQUEOUS ON UNIT   1029 AT TIME STEP     36, STRESS PERIOD      2
 UBDSV1 SAVING     FLOW-JA-FACE ON UNIT   1029 AT TIME STEP     36, STRESS PERIOD      2
 UBDSV06 SAVING  SOURCE-SINK MIX IN MODEL GWT_RIVERBASE    PACKAGE GWT_RIVERBASE   CONNECTED TO MODEL GWT_RIVERBASE    PACKAGE SSM              ON UNIT   1029 AT TIME STEP     36, STRESS PERIOD      2
 UBDSV06 SAVING              CNC IN MODEL GWT_RIVERBASE    PACKAGE GWT_RIVERBASE   CONNECTED TO MODEL GWT_RIVERBASE    PACKAGE CNC_0            ON UNIT   1029 AT TIME STEP     36, STRESS PERIOD      2
1
  CONCENTRATION IN LAYER   1 AT END OF TIME STEP  36 IN STRESS PERIOD    2
  ---------------------------------------------------------------------------

                1               2               3               4               5               6               7               8               9              10
 ................................................................................................................................................................
   1      1.00000         1.00000         1.00000         1.00000         1.00000         1.00000         1.00000         1.00000         1.00000         1.00000    
   2     0.999992         1.00000        0.999991         1.00000         1.00000         1.00000         1.00000         1.00000         1.00000         1.00000    
   3      1.00000        0.999991         1.00000         1.00000         1.00000         1.00000         1.00000         1.00000         1.00000         1.00000    
   4      1.00000         1.00000        0.999991         1.00000         1.00000         1.00000         1.00000         1.00000         1.00000         1.00000    
   5      1.00000         1.00001         1.00000        0.999991        0.999990         1.00000         1.00000         1.00000         1.00000         1.00000    
   6      1.00001         10.0000         1.00000        0.999990         1.00000        0.999990         1.00000         1.00000         1.00000         1.00000    
   7      1.00001         10.0000         1.00000         1.00000         1.00000         1.00000        0.999990         1.00000         1.00000         1.00000    
   8      1.00000         1.00001         1.00000         1.00000         1.00000         1.00000         1.00000        0.999989        0.999989         1.00000    
   9      1.00000         1.00000         1.00000         1.00000         1.00000         1.00000         1.00000        0.999989         1.00000         1.00000    
  10      1.00000         1.00000         1.00000         1.00000         1.00000         1.00000         1.00000         1.00000         1.00000         1.00000    
  11      1.00000         1.00000         1.00000         1.00000         1.00000         1.00000         1.00000         1.00000         1.00000         1.00000    
  12      1.00000         1.00000         1.00000         1.00000         1.00000         1.00000         1.00000         1.00000         1.00000         1.00000    
  13      1.00000         1.00000         1.00000         1.00000         1.00000         1.00000         1.00000         1.00000         1.00000         1.00000    
  14      1.00000         1.00000         1.00000         1.00000         1.00000         1.00000         1.00000         1.00000         1.00000         1.00000    
  15      1.00000         1.00000         1.00000         1.00000         1.00000         1.00000         1.00000         1.00000         1.00000         1.00000    
1
  CONCENTRATION IN LAYER   2 AT END OF TIME STEP  36 IN STRESS PERIOD    2
  ---------------------------------------------------------------------------

                1               2               3               4               5               6               7               8               9              10
 ................................................................................................................................................................
   1      1.00000         1.00000         1.00000         1.00000         1.00000         1.00000         1.00000         1.00000         1.00000         1.00000    
   2      1.00000         1.00000         1.00000         1.00000         1.00000         1.00000         1.00000         1.00000         1.00000         1.00000    
   3      1.00000         1.00000         1.00000         1.00000         1.00000         1.00000         1.00000         1.00000         1.00000         1.00000    
   4      1.00000         1.00000         1.00000         1.00000         1.00000         1.00000         1.00000         1.00000         1.00000         1.00000    
   5      1.00000         1.00000         1.00000         1.00000         1.00000         1.00000         1.00000         1.00000         1.00000         1.00000    
   6      1.00000         1.00000         1.00000         1.00000         1.00000         1.00000         1.00000         1.00000         1.00000         1.00000    
   7      1.00000         1.00000         1.00000         1.00000         1.00000         1.00000         1.00000         1.00000         1.00000         1.00000    
   8      1.00000         1.00000         1.00000         1.00000         1.00000         1.00000         1.00000         1.00000         1.00000         1.00000    
   9      1.00000         1.00000         1.00000         1.00000         1.00000         1.00000         1.00000         1.00000         1.00000         1.00000    
  10      1.00000         1.00000         1.00000         1.00000         1.00000         1.00000         1.00000         1.00000         1.00000         1.00000    
  11      1.00000         1.00000         1.00000         1.00000         1.00000         1.00000         1.00000         1.00000         1.00000         1.00000    
  12      1.00000         1.00000         1.00000         1.00000         1.00000         1.00000         1.00000         1.00000         1.00000         1.00000    
  13      1.00000         1.00000         1.00000         1.00000         1.00000         1.00000         1.00000         1.00000         1.00000         1.00000    
  14      1.00000         1.00000         1.00000         1.00000         1.00000         1.00000         1.00000         1.00000         1.00000         1.00000    
  15      1.00000         1.00000         1.00000         1.00000         1.00000         1.00000         1.00000         1.00000         1.00000         1.00000    
1
  CONCENTRATION IN LAYER   3 AT END OF TIME STEP  36 IN STRESS PERIOD    2
  ---------------------------------------------------------------------------

                1               2               3               4               5               6               7               8               9              10
 ................................................................................................................................................................
   1      1.00000         1.00000         1.00000         1.00000         1.00000         1.00000         1.00000         1.00000         1.00000         1.00000    
   2      1.00000         1.00000         1.00000         1.00000         1.00000         1.00000         1.00000         1.00000         1.00000         1.00000    
   3      1.00000         1.00000         1.00000         1.00000         1.00000         1.00000         1.00000         1.00000         1.00000         1.00000    
   4      1.00000         1.00000         1.00000         1.00000         1.00000         1.00000         1.00000         1.00000         1.00000         1.00000    
   5      1.00000         1.00000         1.00000         1.00000         1.00000         1.00000         1.00000         1.00000         1.00000         1.00000    
   6      1.00000         1.00000         1.00000         1.00000         1.00000         1.00000         1.00000         1.00000         1.00000         1.00000    
   7      1.00000         1.00000         1.00000         1.00000         1.00000         1.00000         1.00000         1.00000         1.00000         1.00000    
   8      1.00000         1.00000         1.00000         1.00000         1.00000         1.00000         1.00000         1.00000         1.00000         1.00000    
   9      1.00000         1.00000         1.00000         1.00000         1.00000         1.00000         1.00000         1.00000         1.00000         1.00000    
  10      1.00000         1.00000         1.00000         1.00000         1.00000         1.00000         1.00000         1.00000         1.00000         1.00000    
  11      1.00000         1.00000         1.00000         1.00000         1.00000         1.00000         1.00000         1.00000         1.00000         1.00000    
  12      1.00000         1.00000         1.00000         1.00000         1.00000         1.00000         1.00000         1.00000         1.00000         1.00000    
  13      1.00000         1.00000         1.00000         1.00000         1.00000         1.00000         1.00000         1.00000         1.00000         1.00000    
  14      1.00000         1.00000         1.00000         1.00000         1.00000         1.00000         1.00000         1.00000         1.00000         1.00000    
  15      1.00000         1.00000         1.00000         1.00000         1.00000         1.00000         1.00000         1.00000         1.00000         1.00000    

 CONCENTRATION WILL BE SAVED ON UNIT 1030 AT END OF TIME STEP   36, STRESS PERIOD    2


  MASS BUDGET FOR ENTIRE MODEL AT END OF TIME STEP   36, STRESS PERIOD   2
  ---------------------------------------------------------------------------------------------------

     CUMULATIVE MASS      M       RATES FOR THIS TIME STEP      M/T          PACKAGE NAME    
     ------------------                 ------------------------                     ----------------

           IN:                                      IN:
           ---                                      ---
     STORAGE-AQUEOUS =           8.1937       STORAGE-AQUEOUS =           2.0475     MST                              
                 RIV =           0.0000                   RIV =           0.0000     SSM_RIV-1                        
                 CHD =           0.0000                   CHD =           0.0000     SSM_CHD-1                        
                 CNC =           3.4170                   CNC =           0.8524     CNC_0                            

            TOTAL IN =          11.6107              TOTAL IN =           2.8999

          OUT:                                     OUT:
          ----                                     ----
     STORAGE-AQUEOUS =           3.5973       STORAGE-AQUEOUS =           0.8966     MST                              
                 RIV =           0.0000                   RIV =           0.0000     SSM_RIV-1                        
                 CHD =           7.7037                   CHD =           1.9259     SSM_CHD-1                        
                 CNC =           0.3098                   CNC =       7.7436E-02     CNC_0                            

           TOTAL OUT =          11.6107             TOTAL OUT =           2.8999

            IN - OUT =      -6.9505E-11              IN - OUT =       9.6958E-10

 PERCENT DISCREPANCY =          -0.00     PERCENT DISCREPANCY =           0.00




         TIME SUMMARY AT END OF TIME STEP   36 IN STRESS PERIOD    2
                    SECONDS     MINUTES      HOURS       DAYS        YEARS
                    -----------------------------------------------------------
   TIME STEP LENGTH  7200.0      120.00      2.0000     8.33333E-02 2.28154E-04
 STRESS PERIOD TIME 2.59200E+05  4320.0      72.000      3.0000     8.21355E-03
         TOTAL TIME 3.45600E+05  5760.0      96.000      4.0000     1.09514E-02


end timestep


start timestep kper="2" kstp="37" mode="normal"

 UBDSV1 SAVING  STORAGE-AQUEOUS ON UNIT   1029 AT TIME STEP     37, STRESS PERIOD      2
 UBDSV1 SAVING     FLOW-JA-FACE ON UNIT   1029 AT TIME STEP     37, STRESS PERIOD      2
 UBDSV06 SAVING  SOURCE-SINK MIX IN MODEL GWT_RIVERBASE    PACKAGE GWT_RIVERBASE   CONNECTED TO MODEL GWT_RIVERBASE    PACKAGE SSM              ON UNIT   1029 AT TIME STEP     37, STRESS PERIOD      2
 UBDSV06 SAVING              CNC IN MODEL GWT_RIVERBASE    PACKAGE GWT_RIVERBASE   CONNECTED TO MODEL GWT_RIVERBASE    PACKAGE CNC_0            ON UNIT   1029 AT TIME STEP     37, STRESS PERIOD      2
1
  CONCENTRATION IN LAYER   1 AT END OF TIME STEP  37 IN STRESS PERIOD    2
  ---------------------------------------------------------------------------

                1               2               3               4               5               6               7               8               9              10
 ................................................................................................................................................................
   1      1.00000         1.00000         1.00000         1.00000         1.00000         1.00000         1.00000         1.00000         1.00000         1.00000    
   2     0.999991         1.00000        0.999991         1.00000         1.00000         1.00000         1.00000         1.00000         1.00000         1.00000    
   3      1.00000        0.999991         1.00000         1.00000         1.00000         1.00000         1.00000         1.00000         1.00000         1.00000    
   4      1.00000         1.00000        0.999991         1.00000         1.00000         1.00000         1.00000         1.00000         1.00000         1.00000    
   5      1.00000         1.00001         1.00000        0.999991        0.999990         1.00000         1.00000         1.00000         1.00000         1.00000    
   6      1.00001         10.0000         1.00000        0.999990         1.00000        0.999990         1.00000         1.00000         1.00000         1.00000    
   7      1.00001         10.0000         1.00000         1.00000         1.00000         1.00000        0.999989         1.00000         1.00000         1.00000    
   8      1.00000         1.00001         1.00000         1.00000         1.00000         1.00000         1.00000        0.999989        0.999989         1.00000    
   9      1.00000         1.00000         1.00000         1.00000         1.00000         1.00000         1.00000        0.999989         1.00000         1.00000    
  10      1.00000         1.00000         1.00000         1.00000         1.00000         1.00000         1.00000         1.00000         1.00000         1.00000    
  11      1.00000         1.00000         1.00000         1.00000         1.00000         1.00000         1.00000         1.00000         1.00000         1.00000    
  12      1.00000         1.00000         1.00000         1.00000         1.00000         1.00000         1.00000         1.00000         1.00000         1.00000    
  13      1.00000         1.00000         1.00000         1.00000         1.00000         1.00000         1.00000         1.00000         1.00000         1.00000    
  14      1.00000         1.00000         1.00000         1.00000         1.00000         1.00000         1.00000         1.00000         1.00000         1.00000    
  15      1.00000         1.00000         1.00000         1.00000         1.00000         1.00000         1.00000         1.00000         1.00000         1.00000    
1
  CONCENTRATION IN LAYER   2 AT END OF TIME STEP  37 IN STRESS PERIOD    2
  ---------------------------------------------------------------------------

                1               2               3               4               5               6               7               8               9              10
 ................................................................................................................................................................
   1      1.00000         1.00000         1.00000         1.00000         1.00000         1.00000         1.00000         1.00000         1.00000         1.00000    
   2      1.00000         1.00000         1.00000         1.00000         1.00000         1.00000         1.00000         1.00000         1.00000         1.00000    
   3      1.00000         1.00000         1.00000         1.00000         1.00000         1.00000         1.00000         1.00000         1.00000         1.00000    
   4      1.00000         1.00000         1.00000         1.00000         1.00000         1.00000         1.00000         1.00000         1.00000         1.00000    
   5      1.00000         1.00000         1.00000         1.00000         1.00000         1.00000         1.00000         1.00000         1.00000         1.00000    
   6      1.00000         1.00000         1.00000         1.00000         1.00000         1.00000         1.00000         1.00000         1.00000         1.00000    
   7      1.00000         1.00000         1.00000         1.00000         1.00000         1.00000         1.00000         1.00000         1.00000         1.00000    
   8      1.00000         1.00000         1.00000         1.00000         1.00000         1.00000         1.00000         1.00000         1.00000         1.00000    
   9      1.00000         1.00000         1.00000         1.00000         1.00000         1.00000         1.00000         1.00000         1.00000         1.00000    
  10      1.00000         1.00000         1.00000         1.00000         1.00000         1.00000         1.00000         1.00000         1.00000         1.00000    
  11      1.00000         1.00000         1.00000         1.00000         1.00000         1.00000         1.00000         1.00000         1.00000         1.00000    
  12      1.00000         1.00000         1.00000         1.00000         1.00000         1.00000         1.00000         1.00000         1.00000         1.00000    
  13      1.00000         1.00000         1.00000         1.00000         1.00000         1.00000         1.00000         1.00000         1.00000         1.00000    
  14      1.00000         1.00000         1.00000         1.00000         1.00000         1.00000         1.00000         1.00000         1.00000         1.00000    
  15      1.00000         1.00000         1.00000         1.00000         1.00000         1.00000         1.00000         1.00000         1.00000         1.00000    
1
  CONCENTRATION IN LAYER   3 AT END OF TIME STEP  37 IN STRESS PERIOD    2
  ---------------------------------------------------------------------------

                1               2               3               4               5               6               7               8               9              10
 ................................................................................................................................................................
   1      1.00000         1.00000         1.00000         1.00000         1.00000         1.00000         1.00000         1.00000         1.00000         1.00000    
   2      1.00000         1.00000         1.00000         1.00000         1.00000         1.00000         1.00000         1.00000         1.00000         1.00000    
   3      1.00000         1.00000         1.00000         1.00000         1.00000         1.00000         1.00000         1.00000         1.00000         1.00000    
   4      1.00000         1.00000         1.00000         1.00000         1.00000         1.00000         1.00000         1.00000         1.00000         1.00000    
   5      1.00000         1.00000         1.00000         1.00000         1.00000         1.00000         1.00000         1.00000         1.00000         1.00000    
   6      1.00000         1.00000         1.00000         1.00000         1.00000         1.00000         1.00000         1.00000         1.00000         1.00000    
   7      1.00000         1.00000         1.00000         1.00000         1.00000         1.00000         1.00000         1.00000         1.00000         1.00000    
   8      1.00000         1.00000         1.00000         1.00000         1.00000         1.00000         1.00000         1.00000         1.00000         1.00000    
   9      1.00000         1.00000         1.00000         1.00000         1.00000         1.00000         1.00000         1.00000         1.00000         1.00000    
  10      1.00000         1.00000         1.00000         1.00000         1.00000         1.00000         1.00000         1.00000         1.00000         1.00000    
  11      1.00000         1.00000         1.00000         1.00000         1.00000         1.00000         1.00000         1.00000         1.00000         1.00000    
  12      1.00000         1.00000         1.00000         1.00000         1.00000         1.00000         1.00000         1.00000         1.00000         1.00000    
  13      1.00000         1.00000         1.00000         1.00000         1.00000         1.00000         1.00000         1.00000         1.00000         1.00000    
  14      1.00000         1.00000         1.00000         1.00000         1.00000         1.00000         1.00000         1.00000         1.00000         1.00000    
  15      1.00000         1.00000         1.00000         1.00000         1.00000         1.00000         1.00000         1.00000         1.00000         1.00000    

 CONCENTRATION WILL BE SAVED ON UNIT 1030 AT END OF TIME STEP   37, STRESS PERIOD    2


  MASS BUDGET FOR ENTIRE MODEL AT END OF TIME STEP   37, STRESS PERIOD   2
  ---------------------------------------------------------------------------------------------------

     CUMULATIVE MASS      M       RATES FOR THIS TIME STEP      M/T          PACKAGE NAME    
     ------------------                 ------------------------                     ----------------

           IN:                                      IN:
           ---                                      ---
     STORAGE-AQUEOUS =           8.3643       STORAGE-AQUEOUS =           2.0475     MST                              
                 RIV =           0.0000                   RIV =           0.0000     SSM_RIV-1                        
                 CHD =           0.0000                   CHD =           0.0000     SSM_CHD-1                        
                 CNC =           3.4881                   CNC =           0.8524     CNC_0                            

            TOTAL IN =          11.8524              TOTAL IN =           2.8999

          OUT:                                     OUT:
          ----                                     ----
     STORAGE-AQUEOUS =           3.6720       STORAGE-AQUEOUS =           0.8966     MST                              
                 RIV =           0.0000                   RIV =           0.0000     SSM_RIV-1                        
                 CHD =           7.8642                   CHD =           1.9259     SSM_CHD-1                        
                 CNC =           0.3162                   CNC =       7.7436E-02     CNC_0                            

           TOTAL OUT =          11.8524             TOTAL OUT =           2.8999

            IN - OUT =       2.6583E-11              IN - OUT =       1.1531E-09

 PERCENT DISCREPANCY =           0.00     PERCENT DISCREPANCY =           0.00




         TIME SUMMARY AT END OF TIME STEP   37 IN STRESS PERIOD    2
                    SECONDS     MINUTES      HOURS       DAYS        YEARS
                    -----------------------------------------------------------
   TIME STEP LENGTH  7200.0      120.00      2.0000     8.33333E-02 2.28154E-04
 STRESS PERIOD TIME 2.66400E+05  4440.0      74.000      3.0833     8.44171E-03
         TOTAL TIME 3.52800E+05  5880.0      98.000      4.0833     1.11796E-02


end timestep


start timestep kper="2" kstp="38" mode="normal"

 UBDSV1 SAVING  STORAGE-AQUEOUS ON UNIT   1029 AT TIME STEP     38, STRESS PERIOD      2
 UBDSV1 SAVING     FLOW-JA-FACE ON UNIT   1029 AT TIME STEP     38, STRESS PERIOD      2
 UBDSV06 SAVING  SOURCE-SINK MIX IN MODEL GWT_RIVERBASE    PACKAGE GWT_RIVERBASE   CONNECTED TO MODEL GWT_RIVERBASE    PACKAGE SSM              ON UNIT   1029 AT TIME STEP     38, STRESS PERIOD      2
 UBDSV06 SAVING              CNC IN MODEL GWT_RIVERBASE    PACKAGE GWT_RIVERBASE   CONNECTED TO MODEL GWT_RIVERBASE    PACKAGE CNC_0            ON UNIT   1029 AT TIME STEP     38, STRESS PERIOD      2
1
  CONCENTRATION IN LAYER   1 AT END OF TIME STEP  38 IN STRESS PERIOD    2
  ---------------------------------------------------------------------------

                1               2               3               4               5               6               7               8               9              10
 ................................................................................................................................................................
   1      1.00000         1.00000         1.00000         1.00000         1.00000         1.00000         1.00000         1.00000         1.00000         1.00000    
   2     0.999991         1.00000        0.999991         1.00000         1.00000         1.00000         1.00000         1.00000         1.00000         1.00000    
   3      1.00000        0.999991         1.00000         1.00000         1.00000         1.00000         1.00000         1.00000         1.00000         1.00000    
   4      1.00000         1.00000        0.999991         1.00000         1.00000         1.00000         1.00000         1.00000         1.00000         1.00000    
   5      1.00000         1.00001         1.00000        0.999990        0.999990         1.00000         1.00000         1.00000         1.00000         1.00000    
   6      1.00001         10.0000         1.00000        0.999990         1.00000        0.999990         1.00000         1.00000         1.00000         1.00000    
   7      1.00001         10.0000         1.00000         1.00000         1.00000         1.00000        0.999989         1.00000         1.00000         1.00000    
   8      1.00000         1.00001         1.00000         1.00000         1.00000         1.00000         1.00000        0.999989        0.999988         1.00000    
   9      1.00000         1.00000         1.00000         1.00000         1.00000         1.00000         1.00000        0.999989         1.00000         1.00000    
  10      1.00000         1.00000         1.00000         1.00000         1.00000         1.00000         1.00000         1.00000         1.00000         1.00000    
  11      1.00000         1.00000         1.00000         1.00000         1.00000         1.00000         1.00000         1.00000         1.00000         1.00000    
  12      1.00000         1.00000         1.00000         1.00000         1.00000         1.00000         1.00000         1.00000         1.00000         1.00000    
  13      1.00000         1.00000         1.00000         1.00000         1.00000         1.00000         1.00000         1.00000         1.00000         1.00000    
  14      1.00000         1.00000         1.00000         1.00000         1.00000         1.00000         1.00000         1.00000         1.00000         1.00000    
  15      1.00000         1.00000         1.00000         1.00000         1.00000         1.00000         1.00000         1.00000         1.00000         1.00000    
1
  CONCENTRATION IN LAYER   2 AT END OF TIME STEP  38 IN STRESS PERIOD    2
  ---------------------------------------------------------------------------

                1               2               3               4               5               6               7               8               9              10
 ................................................................................................................................................................
   1      1.00000         1.00000         1.00000         1.00000         1.00000         1.00000         1.00000         1.00000         1.00000         1.00000    
   2      1.00000         1.00000         1.00000         1.00000         1.00000         1.00000         1.00000         1.00000         1.00000         1.00000    
   3      1.00000         1.00000         1.00000         1.00000         1.00000         1.00000         1.00000         1.00000         1.00000         1.00000    
   4      1.00000         1.00000         1.00000         1.00000         1.00000         1.00000         1.00000         1.00000         1.00000         1.00000    
   5      1.00000         1.00000         1.00000         1.00000         1.00000         1.00000         1.00000         1.00000         1.00000         1.00000    
   6      1.00000         1.00000         1.00000         1.00000         1.00000         1.00000         1.00000         1.00000         1.00000         1.00000    
   7      1.00000         1.00000         1.00000         1.00000         1.00000         1.00000         1.00000         1.00000         1.00000         1.00000    
   8      1.00000         1.00000         1.00000         1.00000         1.00000         1.00000         1.00000         1.00000         1.00000         1.00000    
   9      1.00000         1.00000         1.00000         1.00000         1.00000         1.00000         1.00000         1.00000         1.00000         1.00000    
  10      1.00000         1.00000         1.00000         1.00000         1.00000         1.00000         1.00000         1.00000         1.00000         1.00000    
  11      1.00000         1.00000         1.00000         1.00000         1.00000         1.00000         1.00000         1.00000         1.00000         1.00000    
  12      1.00000         1.00000         1.00000         1.00000         1.00000         1.00000         1.00000         1.00000         1.00000         1.00000    
  13      1.00000         1.00000         1.00000         1.00000         1.00000         1.00000         1.00000         1.00000         1.00000         1.00000    
  14      1.00000         1.00000         1.00000         1.00000         1.00000         1.00000         1.00000         1.00000         1.00000         1.00000    
  15      1.00000         1.00000         1.00000         1.00000         1.00000         1.00000         1.00000         1.00000         1.00000         1.00000    
1
  CONCENTRATION IN LAYER   3 AT END OF TIME STEP  38 IN STRESS PERIOD    2
  ---------------------------------------------------------------------------

                1               2               3               4               5               6               7               8               9              10
 ................................................................................................................................................................
   1      1.00000         1.00000         1.00000         1.00000         1.00000         1.00000         1.00000         1.00000         1.00000         1.00000    
   2      1.00000         1.00000         1.00000         1.00000         1.00000         1.00000         1.00000         1.00000         1.00000         1.00000    
   3      1.00000         1.00000         1.00000         1.00000         1.00000         1.00000         1.00000         1.00000         1.00000         1.00000    
   4      1.00000         1.00000         1.00000         1.00000         1.00000         1.00000         1.00000         1.00000         1.00000         1.00000    
   5      1.00000         1.00000         1.00000         1.00000         1.00000         1.00000         1.00000         1.00000         1.00000         1.00000    
   6      1.00000         1.00000         1.00000         1.00000         1.00000         1.00000         1.00000         1.00000         1.00000         1.00000    
   7      1.00000         1.00000         1.00000         1.00000         1.00000         1.00000         1.00000         1.00000         1.00000         1.00000    
   8      1.00000         1.00000         1.00000         1.00000         1.00000         1.00000         1.00000         1.00000         1.00000         1.00000    
   9      1.00000         1.00000         1.00000         1.00000         1.00000         1.00000         1.00000         1.00000         1.00000         1.00000    
  10      1.00000         1.00000         1.00000         1.00000         1.00000         1.00000         1.00000         1.00000         1.00000         1.00000    
  11      1.00000         1.00000         1.00000         1.00000         1.00000         1.00000         1.00000         1.00000         1.00000         1.00000    
  12      1.00000         1.00000         1.00000         1.00000         1.00000         1.00000         1.00000         1.00000         1.00000         1.00000    
  13      1.00000         1.00000         1.00000         1.00000         1.00000         1.00000         1.00000         1.00000         1.00000         1.00000    
  14      1.00000         1.00000         1.00000         1.00000         1.00000         1.00000         1.00000         1.00000         1.00000         1.00000    
  15      1.00000         1.00000         1.00000         1.00000         1.00000         1.00000         1.00000         1.00000         1.00000         1.00000    

 CONCENTRATION WILL BE SAVED ON UNIT 1030 AT END OF TIME STEP   38, STRESS PERIOD    2


  MASS BUDGET FOR ENTIRE MODEL AT END OF TIME STEP   38, STRESS PERIOD   2
  ---------------------------------------------------------------------------------------------------

     CUMULATIVE MASS      M       RATES FOR THIS TIME STEP      M/T          PACKAGE NAME    
     ------------------                 ------------------------                     ----------------

           IN:                                      IN:
           ---                                      ---
     STORAGE-AQUEOUS =           8.5349       STORAGE-AQUEOUS =           2.0475     MST                              
                 RIV =           0.0000                   RIV =           0.0000     SSM_RIV-1                        
                 CHD =           0.0000                   CHD =           0.0000     SSM_CHD-1                        
                 CNC =           3.5591                   CNC =           0.8525     CNC_0                            

            TOTAL IN =          12.0940              TOTAL IN =           2.8999

          OUT:                                     OUT:
          ----                                     ----
     STORAGE-AQUEOUS =           3.7467       STORAGE-AQUEOUS =           0.8966     MST                              
                 RIV =           0.0000                   RIV =           0.0000     SSM_RIV-1                        
                 CHD =           8.0247                   CHD =           1.9259     SSM_CHD-1                        
                 CNC =           0.3227                   CNC =       7.7435E-02     CNC_0                            

           TOTAL OUT =          12.0940             TOTAL OUT =           2.8999

            IN - OUT =       3.6930E-11              IN - OUT =       1.2416E-10

 PERCENT DISCREPANCY =           0.00     PERCENT DISCREPANCY =           0.00




         TIME SUMMARY AT END OF TIME STEP   38 IN STRESS PERIOD    2
                    SECONDS     MINUTES      HOURS       DAYS        YEARS
                    -----------------------------------------------------------
   TIME STEP LENGTH  7200.0      120.00      2.0000     8.33333E-02 2.28154E-04
 STRESS PERIOD TIME 2.73600E+05  4560.0      76.000      3.1667     8.66986E-03
         TOTAL TIME 3.60000E+05  6000.0      100.00      4.1667     1.14077E-02


end timestep


start timestep kper="2" kstp="39" mode="normal"

 UBDSV1 SAVING  STORAGE-AQUEOUS ON UNIT   1029 AT TIME STEP     39, STRESS PERIOD      2
 UBDSV1 SAVING     FLOW-JA-FACE ON UNIT   1029 AT TIME STEP     39, STRESS PERIOD      2
 UBDSV06 SAVING  SOURCE-SINK MIX IN MODEL GWT_RIVERBASE    PACKAGE GWT_RIVERBASE   CONNECTED TO MODEL GWT_RIVERBASE    PACKAGE SSM              ON UNIT   1029 AT TIME STEP     39, STRESS PERIOD      2
 UBDSV06 SAVING              CNC IN MODEL GWT_RIVERBASE    PACKAGE GWT_RIVERBASE   CONNECTED TO MODEL GWT_RIVERBASE    PACKAGE CNC_0            ON UNIT   1029 AT TIME STEP     39, STRESS PERIOD      2
1
  CONCENTRATION IN LAYER   1 AT END OF TIME STEP  39 IN STRESS PERIOD    2
  ---------------------------------------------------------------------------

                1               2               3               4               5               6               7               8               9              10
 ................................................................................................................................................................
   1      1.00000         1.00000         1.00000         1.00000         1.00000         1.00000         1.00000         1.00000         1.00000         1.00000    
   2     0.999991         1.00000        0.999991         1.00000         1.00000         1.00000         1.00000         1.00000         1.00000         1.00000    
   3      1.00000        0.999991         1.00000         1.00000         1.00000         1.00000         1.00000         1.00000         1.00000         1.00000    
   4      1.00000         1.00000        0.999990         1.00000         1.00000         1.00000         1.00000         1.00000         1.00000         1.00000    
   5      1.00000         1.00001         1.00000        0.999990        0.999990         1.00000         1.00000         1.00000         1.00000         1.00000    
   6      1.00001         10.0000         1.00000        0.999990         1.00000        0.999989         1.00000         1.00000         1.00000         1.00000    
   7      1.00001         10.0000         1.00000         1.00000         1.00000         1.00000        0.999989         1.00000         1.00000         1.00000    
   8      1.00000         1.00001         1.00000         1.00000         1.00000         1.00000         1.00000        0.999989        0.999988         1.00000    
   9      1.00000         1.00000         1.00000         1.00000         1.00000         1.00000         1.00000        0.999988         1.00000         1.00000    
  10      1.00000         1.00000         1.00000         1.00000         1.00000         1.00000         1.00000         1.00000         1.00000         1.00000    
  11      1.00000         1.00000         1.00000         1.00000         1.00000         1.00000         1.00000         1.00000         1.00000         1.00000    
  12      1.00000         1.00000         1.00000         1.00000         1.00000         1.00000         1.00000         1.00000         1.00000         1.00000    
  13      1.00000         1.00000         1.00000         1.00000         1.00000         1.00000         1.00000         1.00000         1.00000         1.00000    
  14      1.00000         1.00000         1.00000         1.00000         1.00000         1.00000         1.00000         1.00000         1.00000         1.00000    
  15      1.00000         1.00000         1.00000         1.00000         1.00000         1.00000         1.00000         1.00000         1.00000         1.00000    
1
  CONCENTRATION IN LAYER   2 AT END OF TIME STEP  39 IN STRESS PERIOD    2
  ---------------------------------------------------------------------------

                1               2               3               4               5               6               7               8               9              10
 ................................................................................................................................................................
   1      1.00000         1.00000         1.00000         1.00000         1.00000         1.00000         1.00000         1.00000         1.00000         1.00000    
   2      1.00000         1.00000         1.00000         1.00000         1.00000         1.00000         1.00000         1.00000         1.00000         1.00000    
   3      1.00000         1.00000         1.00000         1.00000         1.00000         1.00000         1.00000         1.00000         1.00000         1.00000    
   4      1.00000         1.00000         1.00000         1.00000         1.00000         1.00000         1.00000         1.00000         1.00000         1.00000    
   5      1.00000         1.00000         1.00000         1.00000         1.00000         1.00000         1.00000         1.00000         1.00000         1.00000    
   6      1.00000         1.00000         1.00000         1.00000         1.00000         1.00000         1.00000         1.00000         1.00000         1.00000    
   7      1.00000         1.00000         1.00000         1.00000         1.00000         1.00000         1.00000         1.00000         1.00000         1.00000    
   8      1.00000         1.00000         1.00000         1.00000         1.00000         1.00000         1.00000         1.00000         1.00000         1.00000    
   9      1.00000         1.00000         1.00000         1.00000         1.00000         1.00000         1.00000         1.00000         1.00000         1.00000    
  10      1.00000         1.00000         1.00000         1.00000         1.00000         1.00000         1.00000         1.00000         1.00000         1.00000    
  11      1.00000         1.00000         1.00000         1.00000         1.00000         1.00000         1.00000         1.00000         1.00000         1.00000    
  12      1.00000         1.00000         1.00000         1.00000         1.00000         1.00000         1.00000         1.00000         1.00000         1.00000    
  13      1.00000         1.00000         1.00000         1.00000         1.00000         1.00000         1.00000         1.00000         1.00000         1.00000    
  14      1.00000         1.00000         1.00000         1.00000         1.00000         1.00000         1.00000         1.00000         1.00000         1.00000    
  15      1.00000         1.00000         1.00000         1.00000         1.00000         1.00000         1.00000         1.00000         1.00000         1.00000    
1
  CONCENTRATION IN LAYER   3 AT END OF TIME STEP  39 IN STRESS PERIOD    2
  ---------------------------------------------------------------------------

                1               2               3               4               5               6               7               8               9              10
 ................................................................................................................................................................
   1      1.00000         1.00000         1.00000         1.00000         1.00000         1.00000         1.00000         1.00000         1.00000         1.00000    
   2      1.00000         1.00000         1.00000         1.00000         1.00000         1.00000         1.00000         1.00000         1.00000         1.00000    
   3      1.00000         1.00000         1.00000         1.00000         1.00000         1.00000         1.00000         1.00000         1.00000         1.00000    
   4      1.00000         1.00000         1.00000         1.00000         1.00000         1.00000         1.00000         1.00000         1.00000         1.00000    
   5      1.00000         1.00000         1.00000         1.00000         1.00000         1.00000         1.00000         1.00000         1.00000         1.00000    
   6      1.00000         1.00000         1.00000         1.00000         1.00000         1.00000         1.00000         1.00000         1.00000         1.00000    
   7      1.00000         1.00000         1.00000         1.00000         1.00000         1.00000         1.00000         1.00000         1.00000         1.00000    
   8      1.00000         1.00000         1.00000         1.00000         1.00000         1.00000         1.00000         1.00000         1.00000         1.00000    
   9      1.00000         1.00000         1.00000         1.00000         1.00000         1.00000         1.00000         1.00000         1.00000         1.00000    
  10      1.00000         1.00000         1.00000         1.00000         1.00000         1.00000         1.00000         1.00000         1.00000         1.00000    
  11      1.00000         1.00000         1.00000         1.00000         1.00000         1.00000         1.00000         1.00000         1.00000         1.00000    
  12      1.00000         1.00000         1.00000         1.00000         1.00000         1.00000         1.00000         1.00000         1.00000         1.00000    
  13      1.00000         1.00000         1.00000         1.00000         1.00000         1.00000         1.00000         1.00000         1.00000         1.00000    
  14      1.00000         1.00000         1.00000         1.00000         1.00000         1.00000         1.00000         1.00000         1.00000         1.00000    
  15      1.00000         1.00000         1.00000         1.00000         1.00000         1.00000         1.00000         1.00000         1.00000         1.00000    

 CONCENTRATION WILL BE SAVED ON UNIT 1030 AT END OF TIME STEP   39, STRESS PERIOD    2


  MASS BUDGET FOR ENTIRE MODEL AT END OF TIME STEP   39, STRESS PERIOD   2
  ---------------------------------------------------------------------------------------------------

     CUMULATIVE MASS      M       RATES FOR THIS TIME STEP      M/T          PACKAGE NAME    
     ------------------                 ------------------------                     ----------------

           IN:                                      IN:
           ---                                      ---
     STORAGE-AQUEOUS =           8.7055       STORAGE-AQUEOUS =           2.0475     MST                              
                 RIV =           0.0000                   RIV =           0.0000     SSM_RIV-1                        
                 CHD =           0.0000                   CHD =           0.0000     SSM_CHD-1                        
                 CNC =           3.6302                   CNC =           0.8525     CNC_0                            

            TOTAL IN =          12.3357              TOTAL IN =           2.8999

          OUT:                                     OUT:
          ----                                     ----
     STORAGE-AQUEOUS =           3.8214       STORAGE-AQUEOUS =           0.8966     MST                              
                 RIV =           0.0000                   RIV =           0.0000     SSM_RIV-1                        
                 CHD =           8.1852                   CHD =           1.9259     SSM_CHD-1                        
                 CNC =           0.3291                   CNC =       7.7435E-02     CNC_0                            

           TOTAL OUT =          12.3357             TOTAL OUT =           2.8999

            IN - OUT =       1.5882E-11              IN - OUT =      -2.5256E-10

 PERCENT DISCREPANCY =           0.00     PERCENT DISCREPANCY =          -0.00




         TIME SUMMARY AT END OF TIME STEP   39 IN STRESS PERIOD    2
                    SECONDS     MINUTES      HOURS       DAYS        YEARS
                    -----------------------------------------------------------
   TIME STEP LENGTH  7200.0      120.00      2.0000     8.33333E-02 2.28154E-04
 STRESS PERIOD TIME 2.80800E+05  4680.0      78.000      3.2500     8.89802E-03
         TOTAL TIME 3.67200E+05  6120.0      102.00      4.2500     1.16359E-02


end timestep


start timestep kper="2" kstp="40" mode="normal"

 UBDSV1 SAVING  STORAGE-AQUEOUS ON UNIT   1029 AT TIME STEP     40, STRESS PERIOD      2
 UBDSV1 SAVING     FLOW-JA-FACE ON UNIT   1029 AT TIME STEP     40, STRESS PERIOD      2
 UBDSV06 SAVING  SOURCE-SINK MIX IN MODEL GWT_RIVERBASE    PACKAGE GWT_RIVERBASE   CONNECTED TO MODEL GWT_RIVERBASE    PACKAGE SSM              ON UNIT   1029 AT TIME STEP     40, STRESS PERIOD      2
 UBDSV06 SAVING              CNC IN MODEL GWT_RIVERBASE    PACKAGE GWT_RIVERBASE   CONNECTED TO MODEL GWT_RIVERBASE    PACKAGE CNC_0            ON UNIT   1029 AT TIME STEP     40, STRESS PERIOD      2
1
  CONCENTRATION IN LAYER   1 AT END OF TIME STEP  40 IN STRESS PERIOD    2
  ---------------------------------------------------------------------------

                1               2               3               4               5               6               7               8               9              10
 ................................................................................................................................................................
   1      1.00000         1.00000         1.00000         1.00000         1.00000         1.00000         1.00000         1.00000         1.00000         1.00000    
   2     0.999991         1.00000        0.999991         1.00000         1.00000         1.00000         1.00000         1.00000         1.00000         1.00000    
   3      1.00000        0.999990         1.00000         1.00000         1.00000         1.00000         1.00000         1.00000         1.00000         1.00000    
   4      1.00000         1.00000        0.999990         1.00000         1.00000         1.00000         1.00000         1.00000         1.00000         1.00000    
   5      1.00000         1.00001         1.00000        0.999990        0.999989         1.00000         1.00000         1.00000         1.00000         1.00000    
   6      1.00001         10.0000         1.00000        0.999990         1.00000        0.999989         1.00000         1.00000         1.00000         1.00000    
   7      1.00001         10.0000         1.00000         1.00000         1.00000         1.00000        0.999989         1.00000         1.00000         1.00000    
   8      1.00000         1.00001         1.00000         1.00000         1.00000         1.00000         1.00000        0.999989        0.999988         1.00000    
   9      1.00000         1.00000         1.00000         1.00000         1.00000         1.00000         1.00000        0.999988         1.00000         1.00000    
  10      1.00000         1.00000         1.00000         1.00000         1.00000         1.00000         1.00000         1.00000         1.00000         1.00000    
  11      1.00000         1.00000         1.00000         1.00000         1.00000         1.00000         1.00000         1.00000         1.00000         1.00000    
  12      1.00000         1.00000         1.00000         1.00000         1.00000         1.00000         1.00000         1.00000         1.00000         1.00000    
  13      1.00000         1.00000         1.00000         1.00000         1.00000         1.00000         1.00000         1.00000         1.00000         1.00000    
  14      1.00000         1.00000         1.00000         1.00000         1.00000         1.00000         1.00000         1.00000         1.00000         1.00000    
  15      1.00000         1.00000         1.00000         1.00000         1.00000         1.00000         1.00000         1.00000         1.00000         1.00000    
1
  CONCENTRATION IN LAYER   2 AT END OF TIME STEP  40 IN STRESS PERIOD    2
  ---------------------------------------------------------------------------

                1               2               3               4               5               6               7               8               9              10
 ................................................................................................................................................................
   1      1.00000         1.00000         1.00000         1.00000         1.00000         1.00000         1.00000         1.00000         1.00000         1.00000    
   2      1.00000         1.00000         1.00000         1.00000         1.00000         1.00000         1.00000         1.00000         1.00000         1.00000    
   3      1.00000         1.00000         1.00000         1.00000         1.00000         1.00000         1.00000         1.00000         1.00000         1.00000    
   4      1.00000         1.00000         1.00000         1.00000         1.00000         1.00000         1.00000         1.00000         1.00000         1.00000    
   5      1.00000         1.00000         1.00000         1.00000         1.00000         1.00000         1.00000         1.00000         1.00000         1.00000    
   6      1.00000         1.00000         1.00000         1.00000         1.00000         1.00000         1.00000         1.00000         1.00000         1.00000    
   7      1.00000         1.00000         1.00000         1.00000         1.00000         1.00000         1.00000         1.00000         1.00000         1.00000    
   8      1.00000         1.00000         1.00000         1.00000         1.00000         1.00000         1.00000         1.00000         1.00000         1.00000    
   9      1.00000         1.00000         1.00000         1.00000         1.00000         1.00000         1.00000         1.00000         1.00000         1.00000    
  10      1.00000         1.00000         1.00000         1.00000         1.00000         1.00000         1.00000         1.00000         1.00000         1.00000    
  11      1.00000         1.00000         1.00000         1.00000         1.00000         1.00000         1.00000         1.00000         1.00000         1.00000    
  12      1.00000         1.00000         1.00000         1.00000         1.00000         1.00000         1.00000         1.00000         1.00000         1.00000    
  13      1.00000         1.00000         1.00000         1.00000         1.00000         1.00000         1.00000         1.00000         1.00000         1.00000    
  14      1.00000         1.00000         1.00000         1.00000         1.00000         1.00000         1.00000         1.00000         1.00000         1.00000    
  15      1.00000         1.00000         1.00000         1.00000         1.00000         1.00000         1.00000         1.00000         1.00000         1.00000    
1
  CONCENTRATION IN LAYER   3 AT END OF TIME STEP  40 IN STRESS PERIOD    2
  ---------------------------------------------------------------------------

                1               2               3               4               5               6               7               8               9              10
 ................................................................................................................................................................
   1      1.00000         1.00000         1.00000         1.00000         1.00000         1.00000         1.00000         1.00000         1.00000         1.00000    
   2      1.00000         1.00000         1.00000         1.00000         1.00000         1.00000         1.00000         1.00000         1.00000         1.00000    
   3      1.00000         1.00000         1.00000         1.00000         1.00000         1.00000         1.00000         1.00000         1.00000         1.00000    
   4      1.00000         1.00000         1.00000         1.00000         1.00000         1.00000         1.00000         1.00000         1.00000         1.00000    
   5      1.00000         1.00000         1.00000         1.00000         1.00000         1.00000         1.00000         1.00000         1.00000         1.00000    
   6      1.00000         1.00000         1.00000         1.00000         1.00000         1.00000         1.00000         1.00000         1.00000         1.00000    
   7      1.00000         1.00000         1.00000         1.00000         1.00000         1.00000         1.00000         1.00000         1.00000         1.00000    
   8      1.00000         1.00000         1.00000         1.00000         1.00000         1.00000         1.00000         1.00000         1.00000         1.00000    
   9      1.00000         1.00000         1.00000         1.00000         1.00000         1.00000         1.00000         1.00000         1.00000         1.00000    
  10      1.00000         1.00000         1.00000         1.00000         1.00000         1.00000         1.00000         1.00000         1.00000         1.00000    
  11      1.00000         1.00000         1.00000         1.00000         1.00000         1.00000         1.00000         1.00000         1.00000         1.00000    
  12      1.00000         1.00000         1.00000         1.00000         1.00000         1.00000         1.00000         1.00000         1.00000         1.00000    
  13      1.00000         1.00000         1.00000         1.00000         1.00000         1.00000         1.00000         1.00000         1.00000         1.00000    
  14      1.00000         1.00000         1.00000         1.00000         1.00000         1.00000         1.00000         1.00000         1.00000         1.00000    
  15      1.00000         1.00000         1.00000         1.00000         1.00000         1.00000         1.00000         1.00000         1.00000         1.00000    

 CONCENTRATION WILL BE SAVED ON UNIT 1030 AT END OF TIME STEP   40, STRESS PERIOD    2


  MASS BUDGET FOR ENTIRE MODEL AT END OF TIME STEP   40, STRESS PERIOD   2
  ---------------------------------------------------------------------------------------------------

     CUMULATIVE MASS      M       RATES FOR THIS TIME STEP      M/T          PACKAGE NAME    
     ------------------                 ------------------------                     ----------------

           IN:                                      IN:
           ---                                      ---
     STORAGE-AQUEOUS =           8.8762       STORAGE-AQUEOUS =           2.0475     MST                              
                 RIV =           0.0000                   RIV =           0.0000     SSM_RIV-1                        
                 CHD =           0.0000                   CHD =           0.0000     SSM_CHD-1                        
                 CNC =           3.7012                   CNC =           0.8525     CNC_0                            

            TOTAL IN =          12.5774              TOTAL IN =           2.8999

          OUT:                                     OUT:
          ----                                     ----
     STORAGE-AQUEOUS =           3.8961       STORAGE-AQUEOUS =           0.8966     MST                              
                 RIV =           0.0000                   RIV =           0.0000     SSM_RIV-1                        
                 CHD =           8.3457                   CHD =           1.9259     SSM_CHD-1                        
                 CNC =           0.3356                   CNC =       7.7435E-02     CNC_0                            

           TOTAL OUT =          12.5774             TOTAL OUT =           2.8999

            IN - OUT =       3.0131E-11              IN - OUT =       1.7099E-10

 PERCENT DISCREPANCY =           0.00     PERCENT DISCREPANCY =           0.00




         TIME SUMMARY AT END OF TIME STEP   40 IN STRESS PERIOD    2
                    SECONDS     MINUTES      HOURS       DAYS        YEARS
                    -----------------------------------------------------------
   TIME STEP LENGTH  7200.0      120.00      2.0000     8.33333E-02 2.28154E-04
 STRESS PERIOD TIME 2.88000E+05  4800.0      80.000      3.3333     9.12617E-03
         TOTAL TIME 3.74400E+05  6240.0      104.00      4.3333     1.18640E-02


end timestep


start timestep kper="2" kstp="41" mode="normal"

 UBDSV1 SAVING  STORAGE-AQUEOUS ON UNIT   1029 AT TIME STEP     41, STRESS PERIOD      2
 UBDSV1 SAVING     FLOW-JA-FACE ON UNIT   1029 AT TIME STEP     41, STRESS PERIOD      2
 UBDSV06 SAVING  SOURCE-SINK MIX IN MODEL GWT_RIVERBASE    PACKAGE GWT_RIVERBASE   CONNECTED TO MODEL GWT_RIVERBASE    PACKAGE SSM              ON UNIT   1029 AT TIME STEP     41, STRESS PERIOD      2
 UBDSV06 SAVING              CNC IN MODEL GWT_RIVERBASE    PACKAGE GWT_RIVERBASE   CONNECTED TO MODEL GWT_RIVERBASE    PACKAGE CNC_0            ON UNIT   1029 AT TIME STEP     41, STRESS PERIOD      2
1
  CONCENTRATION IN LAYER   1 AT END OF TIME STEP  41 IN STRESS PERIOD    2
  ---------------------------------------------------------------------------

                1               2               3               4               5               6               7               8               9              10
 ................................................................................................................................................................
   1      1.00000         1.00000         1.00000         1.00000         1.00000         1.00000         1.00000         1.00000         1.00000         1.00000    
   2     0.999991         1.00000        0.999991         1.00000         1.00000         1.00000         1.00000         1.00000         1.00000         1.00000    
   3      1.00000        0.999990         1.00000         1.00000         1.00000         1.00000         1.00000         1.00000         1.00000         1.00000    
   4      1.00000         1.00000        0.999990         1.00000         1.00000         1.00000         1.00000         1.00000         1.00000         1.00000    
   5      1.00000         1.00001         1.00000        0.999990        0.999989         1.00000         1.00000         1.00000         1.00000         1.00000    
   6      1.00002         10.0000         1.00000        0.999989         1.00000        0.999989         1.00000         1.00000         1.00000         1.00000    
   7      1.00001         10.0000         1.00000         1.00000         1.00000         1.00000        0.999989         1.00000         1.00000         1.00000    
   8      1.00000         1.00001         1.00000         1.00000         1.00000         1.00000         1.00000        0.999988        0.999988         1.00000    
   9      1.00000         1.00000         1.00000         1.00000         1.00000         1.00000         1.00000        0.999988         1.00000         1.00000    
  10      1.00000         1.00000         1.00000         1.00000         1.00000         1.00000         1.00000         1.00000         1.00000         1.00000    
  11      1.00000         1.00000         1.00000         1.00000         1.00000         1.00000         1.00000         1.00000         1.00000         1.00000    
  12      1.00000         1.00000         1.00000         1.00000         1.00000         1.00000         1.00000         1.00000         1.00000         1.00000    
  13      1.00000         1.00000         1.00000         1.00000         1.00000         1.00000         1.00000         1.00000         1.00000         1.00000    
  14      1.00000         1.00000         1.00000         1.00000         1.00000         1.00000         1.00000         1.00000         1.00000         1.00000    
  15      1.00000         1.00000         1.00000         1.00000         1.00000         1.00000         1.00000         1.00000         1.00000         1.00000    
1
  CONCENTRATION IN LAYER   2 AT END OF TIME STEP  41 IN STRESS PERIOD    2
  ---------------------------------------------------------------------------

                1               2               3               4               5               6               7               8               9              10
 ................................................................................................................................................................
   1      1.00000         1.00000         1.00000         1.00000         1.00000         1.00000         1.00000         1.00000         1.00000         1.00000    
   2      1.00000         1.00000         1.00000         1.00000         1.00000         1.00000         1.00000         1.00000         1.00000         1.00000    
   3      1.00000         1.00000         1.00000         1.00000         1.00000         1.00000         1.00000         1.00000         1.00000         1.00000    
   4      1.00000         1.00000         1.00000         1.00000         1.00000         1.00000         1.00000         1.00000         1.00000         1.00000    
   5      1.00000         1.00000         1.00000         1.00000         1.00000         1.00000         1.00000         1.00000         1.00000         1.00000    
   6      1.00000         1.00000         1.00000         1.00000         1.00000         1.00000         1.00000         1.00000         1.00000         1.00000    
   7      1.00000         1.00000         1.00000         1.00000         1.00000         1.00000         1.00000         1.00000         1.00000         1.00000    
   8      1.00000         1.00000         1.00000         1.00000         1.00000         1.00000         1.00000         1.00000         1.00000         1.00000    
   9      1.00000         1.00000         1.00000         1.00000         1.00000         1.00000         1.00000         1.00000         1.00000         1.00000    
  10      1.00000         1.00000         1.00000         1.00000         1.00000         1.00000         1.00000         1.00000         1.00000         1.00000    
  11      1.00000         1.00000         1.00000         1.00000         1.00000         1.00000         1.00000         1.00000         1.00000         1.00000    
  12      1.00000         1.00000         1.00000         1.00000         1.00000         1.00000         1.00000         1.00000         1.00000         1.00000    
  13      1.00000         1.00000         1.00000         1.00000         1.00000         1.00000         1.00000         1.00000         1.00000         1.00000    
  14      1.00000         1.00000         1.00000         1.00000         1.00000         1.00000         1.00000         1.00000         1.00000         1.00000    
  15      1.00000         1.00000         1.00000         1.00000         1.00000         1.00000         1.00000         1.00000         1.00000         1.00000    
1
  CONCENTRATION IN LAYER   3 AT END OF TIME STEP  41 IN STRESS PERIOD    2
  ---------------------------------------------------------------------------

                1               2               3               4               5               6               7               8               9              10
 ................................................................................................................................................................
   1      1.00000         1.00000         1.00000         1.00000         1.00000         1.00000         1.00000         1.00000         1.00000         1.00000    
   2      1.00000         1.00000         1.00000         1.00000         1.00000         1.00000         1.00000         1.00000         1.00000         1.00000    
   3      1.00000         1.00000         1.00000         1.00000         1.00000         1.00000         1.00000         1.00000         1.00000         1.00000    
   4      1.00000         1.00000         1.00000         1.00000         1.00000         1.00000         1.00000         1.00000         1.00000         1.00000    
   5      1.00000         1.00000         1.00000         1.00000         1.00000         1.00000         1.00000         1.00000         1.00000         1.00000    
   6      1.00000         1.00000         1.00000         1.00000         1.00000         1.00000         1.00000         1.00000         1.00000         1.00000    
   7      1.00000         1.00000         1.00000         1.00000         1.00000         1.00000         1.00000         1.00000         1.00000         1.00000    
   8      1.00000         1.00000         1.00000         1.00000         1.00000         1.00000         1.00000         1.00000         1.00000         1.00000    
   9      1.00000         1.00000         1.00000         1.00000         1.00000         1.00000         1.00000         1.00000         1.00000         1.00000    
  10      1.00000         1.00000         1.00000         1.00000         1.00000         1.00000         1.00000         1.00000         1.00000         1.00000    
  11      1.00000         1.00000         1.00000         1.00000         1.00000         1.00000         1.00000         1.00000         1.00000         1.00000    
  12      1.00000         1.00000         1.00000         1.00000         1.00000         1.00000         1.00000         1.00000         1.00000         1.00000    
  13      1.00000         1.00000         1.00000         1.00000         1.00000         1.00000         1.00000         1.00000         1.00000         1.00000    
  14      1.00000         1.00000         1.00000         1.00000         1.00000         1.00000         1.00000         1.00000         1.00000         1.00000    
  15      1.00000         1.00000         1.00000         1.00000         1.00000         1.00000         1.00000         1.00000         1.00000         1.00000    

 CONCENTRATION WILL BE SAVED ON UNIT 1030 AT END OF TIME STEP   41, STRESS PERIOD    2


  MASS BUDGET FOR ENTIRE MODEL AT END OF TIME STEP   41, STRESS PERIOD   2
  ---------------------------------------------------------------------------------------------------

     CUMULATIVE MASS      M       RATES FOR THIS TIME STEP      M/T          PACKAGE NAME    
     ------------------                 ------------------------                     ----------------

           IN:                                      IN:
           ---                                      ---
     STORAGE-AQUEOUS =           9.0468       STORAGE-AQUEOUS =           2.0475     MST                              
                 RIV =           0.0000                   RIV =           0.0000     SSM_RIV-1                        
                 CHD =           0.0000                   CHD =           0.0000     SSM_CHD-1                        
                 CNC =           3.7722                   CNC =           0.8525     CNC_0                            

            TOTAL IN =          12.8190              TOTAL IN =           2.8999

          OUT:                                     OUT:
          ----                                     ----
     STORAGE-AQUEOUS =           3.9709       STORAGE-AQUEOUS =           0.8966     MST                              
                 RIV =           0.0000                   RIV =           0.0000     SSM_RIV-1                        
                 CHD =           8.5062                   CHD =           1.9259     SSM_CHD-1                        
                 CNC =           0.3420                   CNC =       7.7435E-02     CNC_0                            

           TOTAL OUT =          12.8190             TOTAL OUT =           2.8999

            IN - OUT =       2.0243E-10              IN - OUT =       2.0675E-09

 PERCENT DISCREPANCY =           0.00     PERCENT DISCREPANCY =           0.00




         TIME SUMMARY AT END OF TIME STEP   41 IN STRESS PERIOD    2
                    SECONDS     MINUTES      HOURS       DAYS        YEARS
                    -----------------------------------------------------------
   TIME STEP LENGTH  7200.0      120.00      2.0000     8.33333E-02 2.28154E-04
 STRESS PERIOD TIME 2.95200E+05  4920.0      82.000      3.4167     9.35432E-03
         TOTAL TIME 3.81600E+05  6360.0      106.00      4.4167     1.20922E-02


end timestep


start timestep kper="2" kstp="42" mode="normal"

 UBDSV1 SAVING  STORAGE-AQUEOUS ON UNIT   1029 AT TIME STEP     42, STRESS PERIOD      2
 UBDSV1 SAVING     FLOW-JA-FACE ON UNIT   1029 AT TIME STEP     42, STRESS PERIOD      2
 UBDSV06 SAVING  SOURCE-SINK MIX IN MODEL GWT_RIVERBASE    PACKAGE GWT_RIVERBASE   CONNECTED TO MODEL GWT_RIVERBASE    PACKAGE SSM              ON UNIT   1029 AT TIME STEP     42, STRESS PERIOD      2
 UBDSV06 SAVING              CNC IN MODEL GWT_RIVERBASE    PACKAGE GWT_RIVERBASE   CONNECTED TO MODEL GWT_RIVERBASE    PACKAGE CNC_0            ON UNIT   1029 AT TIME STEP     42, STRESS PERIOD      2
1
  CONCENTRATION IN LAYER   1 AT END OF TIME STEP  42 IN STRESS PERIOD    2
  ---------------------------------------------------------------------------

                1               2               3               4               5               6               7               8               9              10
 ................................................................................................................................................................
   1      1.00000         1.00000         1.00000         1.00000         1.00000         1.00000         1.00000         1.00000         1.00000         1.00000    
   2     0.999991         1.00000        0.999990         1.00000         1.00000         1.00000         1.00000         1.00000         1.00000         1.00000    
   3      1.00000        0.999990         1.00000         1.00000         1.00000         1.00000         1.00000         1.00000         1.00000         1.00000    
   4      1.00000         1.00000        0.999990         1.00000         1.00000         1.00000         1.00000         1.00000         1.00000         1.00000    
   5      1.00000         1.00001         1.00000        0.999990        0.999989         1.00000         1.00000         1.00000         1.00000         1.00000    
   6      1.00002         10.0000         1.00000        0.999989         1.00000        0.999989         1.00000         1.00000         1.00000         1.00000    
   7      1.00001         10.0000         1.00000         1.00000         1.00000         1.00000        0.999988         1.00000         1.00000         1.00000    
   8      1.00000         1.00001         1.00000         1.00000         1.00000         1.00000         1.00000        0.999988        0.999988         1.00000    
   9      1.00000         1.00000         1.00000         1.00000         1.00000         1.00000         1.00000        0.999988         1.00000         1.00000    
  10      1.00000         1.00000         1.00000         1.00000         1.00000         1.00000         1.00000         1.00000         1.00000         1.00000    
  11      1.00000         1.00000         1.00000         1.00000         1.00000         1.00000         1.00000         1.00000         1.00000         1.00000    
  12      1.00000         1.00000         1.00000         1.00000         1.00000         1.00000         1.00000         1.00000         1.00000         1.00000    
  13      1.00000         1.00000         1.00000         1.00000         1.00000         1.00000         1.00000         1.00000         1.00000         1.00000    
  14      1.00000         1.00000         1.00000         1.00000         1.00000         1.00000         1.00000         1.00000         1.00000         1.00000    
  15      1.00000         1.00000         1.00000         1.00000         1.00000         1.00000         1.00000         1.00000         1.00000         1.00000    
1
  CONCENTRATION IN LAYER   2 AT END OF TIME STEP  42 IN STRESS PERIOD    2
  ---------------------------------------------------------------------------

                1               2               3               4               5               6               7               8               9              10
 ................................................................................................................................................................
   1      1.00000         1.00000         1.00000         1.00000         1.00000         1.00000         1.00000         1.00000         1.00000         1.00000    
   2      1.00000         1.00000         1.00000         1.00000         1.00000         1.00000         1.00000         1.00000         1.00000         1.00000    
   3      1.00000         1.00000         1.00000         1.00000         1.00000         1.00000         1.00000         1.00000         1.00000         1.00000    
   4      1.00000         1.00000         1.00000         1.00000         1.00000         1.00000         1.00000         1.00000         1.00000         1.00000    
   5      1.00000         1.00000         1.00000         1.00000         1.00000         1.00000         1.00000         1.00000         1.00000         1.00000    
   6      1.00000         1.00000         1.00000         1.00000         1.00000         1.00000         1.00000         1.00000         1.00000         1.00000    
   7      1.00000         1.00000         1.00000         1.00000         1.00000         1.00000         1.00000         1.00000         1.00000         1.00000    
   8      1.00000         1.00000         1.00000         1.00000         1.00000         1.00000         1.00000         1.00000         1.00000         1.00000    
   9      1.00000         1.00000         1.00000         1.00000         1.00000         1.00000         1.00000         1.00000         1.00000         1.00000    
  10      1.00000         1.00000         1.00000         1.00000         1.00000         1.00000         1.00000         1.00000         1.00000         1.00000    
  11      1.00000         1.00000         1.00000         1.00000         1.00000         1.00000         1.00000         1.00000         1.00000         1.00000    
  12      1.00000         1.00000         1.00000         1.00000         1.00000         1.00000         1.00000         1.00000         1.00000         1.00000    
  13      1.00000         1.00000         1.00000         1.00000         1.00000         1.00000         1.00000         1.00000         1.00000         1.00000    
  14      1.00000         1.00000         1.00000         1.00000         1.00000         1.00000         1.00000         1.00000         1.00000         1.00000    
  15      1.00000         1.00000         1.00000         1.00000         1.00000         1.00000         1.00000         1.00000         1.00000         1.00000    
1
  CONCENTRATION IN LAYER   3 AT END OF TIME STEP  42 IN STRESS PERIOD    2
  ---------------------------------------------------------------------------

                1               2               3               4               5               6               7               8               9              10
 ................................................................................................................................................................
   1      1.00000         1.00000         1.00000         1.00000         1.00000         1.00000         1.00000         1.00000         1.00000         1.00000    
   2      1.00000         1.00000         1.00000         1.00000         1.00000         1.00000         1.00000         1.00000         1.00000         1.00000    
   3      1.00000         1.00000         1.00000         1.00000         1.00000         1.00000         1.00000         1.00000         1.00000         1.00000    
   4      1.00000         1.00000         1.00000         1.00000         1.00000         1.00000         1.00000         1.00000         1.00000         1.00000    
   5      1.00000         1.00000         1.00000         1.00000         1.00000         1.00000         1.00000         1.00000         1.00000         1.00000    
   6      1.00000         1.00000         1.00000         1.00000         1.00000         1.00000         1.00000         1.00000         1.00000         1.00000    
   7      1.00000         1.00000         1.00000         1.00000         1.00000         1.00000         1.00000         1.00000         1.00000         1.00000    
   8      1.00000         1.00000         1.00000         1.00000         1.00000         1.00000         1.00000         1.00000         1.00000         1.00000    
   9      1.00000         1.00000         1.00000         1.00000         1.00000         1.00000         1.00000         1.00000         1.00000         1.00000    
  10      1.00000         1.00000         1.00000         1.00000         1.00000         1.00000         1.00000         1.00000         1.00000         1.00000    
  11      1.00000         1.00000         1.00000         1.00000         1.00000         1.00000         1.00000         1.00000         1.00000         1.00000    
  12      1.00000         1.00000         1.00000         1.00000         1.00000         1.00000         1.00000         1.00000         1.00000         1.00000    
  13      1.00000         1.00000         1.00000         1.00000         1.00000         1.00000         1.00000         1.00000         1.00000         1.00000    
  14      1.00000         1.00000         1.00000         1.00000         1.00000         1.00000         1.00000         1.00000         1.00000         1.00000    
  15      1.00000         1.00000         1.00000         1.00000         1.00000         1.00000         1.00000         1.00000         1.00000         1.00000    

 CONCENTRATION WILL BE SAVED ON UNIT 1030 AT END OF TIME STEP   42, STRESS PERIOD    2


  MASS BUDGET FOR ENTIRE MODEL AT END OF TIME STEP   42, STRESS PERIOD   2
  ---------------------------------------------------------------------------------------------------

     CUMULATIVE MASS      M       RATES FOR THIS TIME STEP      M/T          PACKAGE NAME    
     ------------------                 ------------------------                     ----------------

           IN:                                      IN:
           ---                                      ---
     STORAGE-AQUEOUS =           9.2174       STORAGE-AQUEOUS =           2.0475     MST                              
                 RIV =           0.0000                   RIV =           0.0000     SSM_RIV-1                        
                 CHD =           0.0000                   CHD =           0.0000     SSM_CHD-1                        
                 CNC =           3.8433                   CNC =           0.8525     CNC_0                            

            TOTAL IN =          13.0607              TOTAL IN =           2.8999

          OUT:                                     OUT:
          ----                                     ----
     STORAGE-AQUEOUS =           4.0456       STORAGE-AQUEOUS =           0.8966     MST                              
                 RIV =           0.0000                   RIV =           0.0000     SSM_RIV-1                        
                 CHD =           8.6667                   CHD =           1.9259     SSM_CHD-1                        
                 CNC =           0.3485                   CNC =       7.7435E-02     CNC_0                            

           TOTAL OUT =          13.0607             TOTAL OUT =           2.8999

            IN - OUT =       3.2362E-10              IN - OUT =       1.4543E-09

 PERCENT DISCREPANCY =           0.00     PERCENT DISCREPANCY =           0.00




         TIME SUMMARY AT END OF TIME STEP   42 IN STRESS PERIOD    2
                    SECONDS     MINUTES      HOURS       DAYS        YEARS
                    -----------------------------------------------------------
   TIME STEP LENGTH  7200.0      120.00      2.0000     8.33333E-02 2.28154E-04
 STRESS PERIOD TIME 3.02400E+05  5040.0      84.000      3.5000     9.58248E-03
         TOTAL TIME 3.88800E+05  6480.0      108.00      4.5000     1.23203E-02


end timestep


start timestep kper="2" kstp="43" mode="normal"

 UBDSV1 SAVING  STORAGE-AQUEOUS ON UNIT   1029 AT TIME STEP     43, STRESS PERIOD      2
 UBDSV1 SAVING     FLOW-JA-FACE ON UNIT   1029 AT TIME STEP     43, STRESS PERIOD      2
 UBDSV06 SAVING  SOURCE-SINK MIX IN MODEL GWT_RIVERBASE    PACKAGE GWT_RIVERBASE   CONNECTED TO MODEL GWT_RIVERBASE    PACKAGE SSM              ON UNIT   1029 AT TIME STEP     43, STRESS PERIOD      2
 UBDSV06 SAVING              CNC IN MODEL GWT_RIVERBASE    PACKAGE GWT_RIVERBASE   CONNECTED TO MODEL GWT_RIVERBASE    PACKAGE CNC_0            ON UNIT   1029 AT TIME STEP     43, STRESS PERIOD      2
1
  CONCENTRATION IN LAYER   1 AT END OF TIME STEP  43 IN STRESS PERIOD    2
  ---------------------------------------------------------------------------

                1               2               3               4               5               6               7               8               9              10
 ................................................................................................................................................................
   1      1.00000         1.00000         1.00000         1.00000         1.00000         1.00000         1.00000         1.00000         1.00000         1.00000    
   2     0.999990         1.00000        0.999990         1.00000         1.00000         1.00000         1.00000         1.00000         1.00000         1.00000    
   3      1.00000        0.999990         1.00000         1.00000         1.00000         1.00000         1.00000         1.00000         1.00000         1.00000    
   4      1.00000         1.00000        0.999990         1.00000         1.00000         1.00000         1.00000         1.00000         1.00000         1.00000    
   5      1.00000         1.00001         1.00000        0.999989        0.999989         1.00000         1.00000         1.00000         1.00000         1.00000    
   6      1.00002         10.0000         1.00000        0.999989         1.00000        0.999988         1.00000         1.00000         1.00000         1.00000    
   7      1.00001         10.0000         1.00000         1.00000         1.00000         1.00000        0.999988         1.00000         1.00000         1.00000    
   8      1.00000         1.00001         1.00000         1.00000         1.00000         1.00000         1.00000        0.999988        0.999987         1.00000    
   9      1.00000         1.00000         1.00000         1.00000         1.00000         1.00000         1.00000        0.999988         1.00000         1.00000    
  10      1.00000         1.00000         1.00000         1.00000         1.00000         1.00000         1.00000         1.00000         1.00000         1.00000    
  11      1.00000         1.00000         1.00000         1.00000         1.00000         1.00000         1.00000         1.00000         1.00000         1.00000    
  12      1.00000         1.00000         1.00000         1.00000         1.00000         1.00000         1.00000         1.00000         1.00000         1.00000    
  13      1.00000         1.00000         1.00000         1.00000         1.00000         1.00000         1.00000         1.00000         1.00000         1.00000    
  14      1.00000         1.00000         1.00000         1.00000         1.00000         1.00000         1.00000         1.00000         1.00000         1.00000    
  15      1.00000         1.00000         1.00000         1.00000         1.00000         1.00000         1.00000         1.00000         1.00000         1.00000    
1
  CONCENTRATION IN LAYER   2 AT END OF TIME STEP  43 IN STRESS PERIOD    2
  ---------------------------------------------------------------------------

                1               2               3               4               5               6               7               8               9              10
 ................................................................................................................................................................
   1      1.00000         1.00000         1.00000         1.00000         1.00000         1.00000         1.00000         1.00000         1.00000         1.00000    
   2      1.00000         1.00000         1.00000         1.00000         1.00000         1.00000         1.00000         1.00000         1.00000         1.00000    
   3      1.00000         1.00000         1.00000         1.00000         1.00000         1.00000         1.00000         1.00000         1.00000         1.00000    
   4      1.00000         1.00000         1.00000         1.00000         1.00000         1.00000         1.00000         1.00000         1.00000         1.00000    
   5      1.00000         1.00000         1.00000         1.00000         1.00000         1.00000         1.00000         1.00000         1.00000         1.00000    
   6      1.00000         1.00000         1.00000         1.00000         1.00000         1.00000         1.00000         1.00000         1.00000         1.00000    
   7      1.00000         1.00000         1.00000         1.00000         1.00000         1.00000         1.00000         1.00000         1.00000         1.00000    
   8      1.00000         1.00000         1.00000         1.00000         1.00000         1.00000         1.00000         1.00000         1.00000         1.00000    
   9      1.00000         1.00000         1.00000         1.00000         1.00000         1.00000         1.00000         1.00000         1.00000         1.00000    
  10      1.00000         1.00000         1.00000         1.00000         1.00000         1.00000         1.00000         1.00000         1.00000         1.00000    
  11      1.00000         1.00000         1.00000         1.00000         1.00000         1.00000         1.00000         1.00000         1.00000         1.00000    
  12      1.00000         1.00000         1.00000         1.00000         1.00000         1.00000         1.00000         1.00000         1.00000         1.00000    
  13      1.00000         1.00000         1.00000         1.00000         1.00000         1.00000         1.00000         1.00000         1.00000         1.00000    
  14      1.00000         1.00000         1.00000         1.00000         1.00000         1.00000         1.00000         1.00000         1.00000         1.00000    
  15      1.00000         1.00000         1.00000         1.00000         1.00000         1.00000         1.00000         1.00000         1.00000         1.00000    
1
  CONCENTRATION IN LAYER   3 AT END OF TIME STEP  43 IN STRESS PERIOD    2
  ---------------------------------------------------------------------------

                1               2               3               4               5               6               7               8               9              10
 ................................................................................................................................................................
   1      1.00000         1.00000         1.00000         1.00000         1.00000         1.00000         1.00000         1.00000         1.00000         1.00000    
   2      1.00000         1.00000         1.00000         1.00000         1.00000         1.00000         1.00000         1.00000         1.00000         1.00000    
   3      1.00000         1.00000         1.00000         1.00000         1.00000         1.00000         1.00000         1.00000         1.00000         1.00000    
   4      1.00000         1.00000         1.00000         1.00000         1.00000         1.00000         1.00000         1.00000         1.00000         1.00000    
   5      1.00000         1.00000         1.00000         1.00000         1.00000         1.00000         1.00000         1.00000         1.00000         1.00000    
   6      1.00000         1.00000         1.00000         1.00000         1.00000         1.00000         1.00000         1.00000         1.00000         1.00000    
   7      1.00000         1.00000         1.00000         1.00000         1.00000         1.00000         1.00000         1.00000         1.00000         1.00000    
   8      1.00000         1.00000         1.00000         1.00000         1.00000         1.00000         1.00000         1.00000         1.00000         1.00000    
   9      1.00000         1.00000         1.00000         1.00000         1.00000         1.00000         1.00000         1.00000         1.00000         1.00000    
  10      1.00000         1.00000         1.00000         1.00000         1.00000         1.00000         1.00000         1.00000         1.00000         1.00000    
  11      1.00000         1.00000         1.00000         1.00000         1.00000         1.00000         1.00000         1.00000         1.00000         1.00000    
  12      1.00000         1.00000         1.00000         1.00000         1.00000         1.00000         1.00000         1.00000         1.00000         1.00000    
  13      1.00000         1.00000         1.00000         1.00000         1.00000         1.00000         1.00000         1.00000         1.00000         1.00000    
  14      1.00000         1.00000         1.00000         1.00000         1.00000         1.00000         1.00000         1.00000         1.00000         1.00000    
  15      1.00000         1.00000         1.00000         1.00000         1.00000         1.00000         1.00000         1.00000         1.00000         1.00000    

 CONCENTRATION WILL BE SAVED ON UNIT 1030 AT END OF TIME STEP   43, STRESS PERIOD    2


  MASS BUDGET FOR ENTIRE MODEL AT END OF TIME STEP   43, STRESS PERIOD   2
  ---------------------------------------------------------------------------------------------------

     CUMULATIVE MASS      M       RATES FOR THIS TIME STEP      M/T          PACKAGE NAME    
     ------------------                 ------------------------                     ----------------

           IN:                                      IN:
           ---                                      ---
     STORAGE-AQUEOUS =           9.3880       STORAGE-AQUEOUS =           2.0475     MST                              
                 RIV =           0.0000                   RIV =           0.0000     SSM_RIV-1                        
                 CHD =           0.0000                   CHD =           0.0000     SSM_CHD-1                        
                 CNC =           3.9143                   CNC =           0.8525     CNC_0                            

            TOTAL IN =          13.3024              TOTAL IN =           2.8999

          OUT:                                     OUT:
          ----                                     ----
     STORAGE-AQUEOUS =           4.1203       STORAGE-AQUEOUS =           0.8966     MST                              
                 RIV =           0.0000                   RIV =           0.0000     SSM_RIV-1                        
                 CHD =           8.8272                   CHD =           1.9259     SSM_CHD-1                        
                 CNC =           0.3549                   CNC =       7.7435E-02     CNC_0                            

           TOTAL OUT =          13.3024             TOTAL OUT =           2.8999

            IN - OUT =       5.5361E-10              IN - OUT =       2.7598E-09

 PERCENT DISCREPANCY =           0.00     PERCENT DISCREPANCY =           0.00




         TIME SUMMARY AT END OF TIME STEP   43 IN STRESS PERIOD    2
                    SECONDS     MINUTES      HOURS       DAYS        YEARS
                    -----------------------------------------------------------
   TIME STEP LENGTH  7200.0      120.00      2.0000     8.33333E-02 2.28154E-04
 STRESS PERIOD TIME 3.09600E+05  5160.0      86.000      3.5833     9.81063E-03
         TOTAL TIME 3.96000E+05  6600.0      110.00      4.5833     1.25485E-02


end timestep


start timestep kper="2" kstp="44" mode="normal"

 UBDSV1 SAVING  STORAGE-AQUEOUS ON UNIT   1029 AT TIME STEP     44, STRESS PERIOD      2
 UBDSV1 SAVING     FLOW-JA-FACE ON UNIT   1029 AT TIME STEP     44, STRESS PERIOD      2
 UBDSV06 SAVING  SOURCE-SINK MIX IN MODEL GWT_RIVERBASE    PACKAGE GWT_RIVERBASE   CONNECTED TO MODEL GWT_RIVERBASE    PACKAGE SSM              ON UNIT   1029 AT TIME STEP     44, STRESS PERIOD      2
 UBDSV06 SAVING              CNC IN MODEL GWT_RIVERBASE    PACKAGE GWT_RIVERBASE   CONNECTED TO MODEL GWT_RIVERBASE    PACKAGE CNC_0            ON UNIT   1029 AT TIME STEP     44, STRESS PERIOD      2
1
  CONCENTRATION IN LAYER   1 AT END OF TIME STEP  44 IN STRESS PERIOD    2
  ---------------------------------------------------------------------------

                1               2               3               4               5               6               7               8               9              10
 ................................................................................................................................................................
   1      1.00000         1.00000         1.00000         1.00000         1.00000         1.00000         1.00000         1.00000         1.00000         1.00000    
   2     0.999990         1.00000        0.999990         1.00000         1.00000         1.00000         1.00000         1.00000         1.00000         1.00000    
   3      1.00000        0.999990         1.00000         1.00000         1.00000         1.00000         1.00000         1.00000         1.00000         1.00000    
   4      1.00000         1.00000        0.999989         1.00000         1.00000         1.00000         1.00000         1.00000         1.00000         1.00000    
   5      1.00000         1.00001         1.00000        0.999989        0.999989         1.00000         1.00000         1.00000         1.00000         1.00000    
   6      1.00002         10.0000         1.00000        0.999989         1.00000        0.999988         1.00000         1.00000         1.00000         1.00000    
   7      1.00001         10.0000         1.00000         1.00000         1.00000         1.00000        0.999988         1.00000         1.00000         1.00000    
   8      1.00000         1.00001         1.00000         1.00000         1.00000         1.00000         1.00000        0.999988        0.999987         1.00000    
   9      1.00000         1.00000         1.00000         1.00000         1.00000         1.00000         1.00000        0.999987         1.00000         1.00000    
  10      1.00000         1.00000         1.00000         1.00000         1.00000         1.00000         1.00000         1.00000         1.00000         1.00000    
  11      1.00000         1.00000         1.00000         1.00000         1.00000         1.00000         1.00000         1.00000         1.00000         1.00000    
  12      1.00000         1.00000         1.00000         1.00000         1.00000         1.00000         1.00000         1.00000         1.00000         1.00000    
  13      1.00000         1.00000         1.00000         1.00000         1.00000         1.00000         1.00000         1.00000         1.00000         1.00000    
  14      1.00000         1.00000         1.00000         1.00000         1.00000         1.00000         1.00000         1.00000         1.00000         1.00000    
  15      1.00000         1.00000         1.00000         1.00000         1.00000         1.00000         1.00000         1.00000         1.00000         1.00000    
1
  CONCENTRATION IN LAYER   2 AT END OF TIME STEP  44 IN STRESS PERIOD    2
  ---------------------------------------------------------------------------

                1               2               3               4               5               6               7               8               9              10
 ................................................................................................................................................................
   1      1.00000         1.00000         1.00000         1.00000         1.00000         1.00000         1.00000         1.00000         1.00000         1.00000    
   2      1.00000         1.00000         1.00000         1.00000         1.00000         1.00000         1.00000         1.00000         1.00000         1.00000    
   3      1.00000         1.00000         1.00000         1.00000         1.00000         1.00000         1.00000         1.00000         1.00000         1.00000    
   4      1.00000         1.00000         1.00000         1.00000         1.00000         1.00000         1.00000         1.00000         1.00000         1.00000    
   5      1.00000         1.00000         1.00000         1.00000         1.00000         1.00000         1.00000         1.00000         1.00000         1.00000    
   6      1.00000         1.00000         1.00000         1.00000         1.00000         1.00000         1.00000         1.00000         1.00000         1.00000    
   7      1.00000         1.00000         1.00000         1.00000         1.00000         1.00000         1.00000         1.00000         1.00000         1.00000    
   8      1.00000         1.00000         1.00000         1.00000         1.00000         1.00000         1.00000         1.00000         1.00000         1.00000    
   9      1.00000         1.00000         1.00000         1.00000         1.00000         1.00000         1.00000         1.00000         1.00000         1.00000    
  10      1.00000         1.00000         1.00000         1.00000         1.00000         1.00000         1.00000         1.00000         1.00000         1.00000    
  11      1.00000         1.00000         1.00000         1.00000         1.00000         1.00000         1.00000         1.00000         1.00000         1.00000    
  12      1.00000         1.00000         1.00000         1.00000         1.00000         1.00000         1.00000         1.00000         1.00000         1.00000    
  13      1.00000         1.00000         1.00000         1.00000         1.00000         1.00000         1.00000         1.00000         1.00000         1.00000    
  14      1.00000         1.00000         1.00000         1.00000         1.00000         1.00000         1.00000         1.00000         1.00000         1.00000    
  15      1.00000         1.00000         1.00000         1.00000         1.00000         1.00000         1.00000         1.00000         1.00000         1.00000    
1
  CONCENTRATION IN LAYER   3 AT END OF TIME STEP  44 IN STRESS PERIOD    2
  ---------------------------------------------------------------------------

                1               2               3               4               5               6               7               8               9              10
 ................................................................................................................................................................
   1      1.00000         1.00000         1.00000         1.00000         1.00000         1.00000         1.00000         1.00000         1.00000         1.00000    
   2      1.00000         1.00000         1.00000         1.00000         1.00000         1.00000         1.00000         1.00000         1.00000         1.00000    
   3      1.00000         1.00000         1.00000         1.00000         1.00000         1.00000         1.00000         1.00000         1.00000         1.00000    
   4      1.00000         1.00000         1.00000         1.00000         1.00000         1.00000         1.00000         1.00000         1.00000         1.00000    
   5      1.00000         1.00000         1.00000         1.00000         1.00000         1.00000         1.00000         1.00000         1.00000         1.00000    
   6      1.00000         1.00000         1.00000         1.00000         1.00000         1.00000         1.00000         1.00000         1.00000         1.00000    
   7      1.00000         1.00000         1.00000         1.00000         1.00000         1.00000         1.00000         1.00000         1.00000         1.00000    
   8      1.00000         1.00000         1.00000         1.00000         1.00000         1.00000         1.00000         1.00000         1.00000         1.00000    
   9      1.00000         1.00000         1.00000         1.00000         1.00000         1.00000         1.00000         1.00000         1.00000         1.00000    
  10      1.00000         1.00000         1.00000         1.00000         1.00000         1.00000         1.00000         1.00000         1.00000         1.00000    
  11      1.00000         1.00000         1.00000         1.00000         1.00000         1.00000         1.00000         1.00000         1.00000         1.00000    
  12      1.00000         1.00000         1.00000         1.00000         1.00000         1.00000         1.00000         1.00000         1.00000         1.00000    
  13      1.00000         1.00000         1.00000         1.00000         1.00000         1.00000         1.00000         1.00000         1.00000         1.00000    
  14      1.00000         1.00000         1.00000         1.00000         1.00000         1.00000         1.00000         1.00000         1.00000         1.00000    
  15      1.00000         1.00000         1.00000         1.00000         1.00000         1.00000         1.00000         1.00000         1.00000         1.00000    

 CONCENTRATION WILL BE SAVED ON UNIT 1030 AT END OF TIME STEP   44, STRESS PERIOD    2


  MASS BUDGET FOR ENTIRE MODEL AT END OF TIME STEP   44, STRESS PERIOD   2
  ---------------------------------------------------------------------------------------------------

     CUMULATIVE MASS      M       RATES FOR THIS TIME STEP      M/T          PACKAGE NAME    
     ------------------                 ------------------------                     ----------------

           IN:                                      IN:
           ---                                      ---
     STORAGE-AQUEOUS =           9.5587       STORAGE-AQUEOUS =           2.0475     MST                              
                 RIV =           0.0000                   RIV =           0.0000     SSM_RIV-1                        
                 CHD =           0.0000                   CHD =           0.0000     SSM_CHD-1                        
                 CNC =           3.9854                   CNC =           0.8525     CNC_0                            

            TOTAL IN =          13.5440              TOTAL IN =           2.8999

          OUT:                                     OUT:
          ----                                     ----
     STORAGE-AQUEOUS =           4.1950       STORAGE-AQUEOUS =           0.8966     MST                              
                 RIV =           0.0000                   RIV =           0.0000     SSM_RIV-1                        
                 CHD =           8.9876                   CHD =           1.9259     SSM_CHD-1                        
                 CNC =           0.3614                   CNC =       7.7435E-02     CNC_0                            

           TOTAL OUT =          13.5440             TOTAL OUT =           2.8999

            IN - OUT =       5.6960E-10              IN - OUT =       1.9195E-10

 PERCENT DISCREPANCY =           0.00     PERCENT DISCREPANCY =           0.00




         TIME SUMMARY AT END OF TIME STEP   44 IN STRESS PERIOD    2
                    SECONDS     MINUTES      HOURS       DAYS        YEARS
                    -----------------------------------------------------------
   TIME STEP LENGTH  7200.0      120.00      2.0000     8.33333E-02 2.28154E-04
 STRESS PERIOD TIME 3.16800E+05  5280.0      88.000      3.6667     1.00388E-02
         TOTAL TIME 4.03200E+05  6720.0      112.00      4.6667     1.27766E-02


end timestep


start timestep kper="2" kstp="45" mode="normal"

 UBDSV1 SAVING  STORAGE-AQUEOUS ON UNIT   1029 AT TIME STEP     45, STRESS PERIOD      2
 UBDSV1 SAVING     FLOW-JA-FACE ON UNIT   1029 AT TIME STEP     45, STRESS PERIOD      2
 UBDSV06 SAVING  SOURCE-SINK MIX IN MODEL GWT_RIVERBASE    PACKAGE GWT_RIVERBASE   CONNECTED TO MODEL GWT_RIVERBASE    PACKAGE SSM              ON UNIT   1029 AT TIME STEP     45, STRESS PERIOD      2
 UBDSV06 SAVING              CNC IN MODEL GWT_RIVERBASE    PACKAGE GWT_RIVERBASE   CONNECTED TO MODEL GWT_RIVERBASE    PACKAGE CNC_0            ON UNIT   1029 AT TIME STEP     45, STRESS PERIOD      2
1
  CONCENTRATION IN LAYER   1 AT END OF TIME STEP  45 IN STRESS PERIOD    2
  ---------------------------------------------------------------------------

                1               2               3               4               5               6               7               8               9              10
 ................................................................................................................................................................
   1      1.00000         1.00000         1.00000         1.00000         1.00000         1.00000         1.00000         1.00000         1.00000         1.00000    
   2     0.999990         1.00000        0.999990         1.00000         1.00000         1.00000         1.00000         1.00000         1.00000         1.00000    
   3      1.00000        0.999990         1.00000         1.00000         1.00000         1.00000         1.00000         1.00000         1.00000         1.00000    
   4      1.00000         1.00000        0.999989         1.00000         1.00000         1.00000         1.00000         1.00000         1.00000         1.00000    
   5      1.00000         1.00001         1.00000        0.999989        0.999988         1.00000         1.00000         1.00000         1.00000         1.00000    
   6      1.00002         10.0000         1.00000        0.999989         1.00000        0.999988         1.00000         1.00000         1.00000         1.00000    
   7      1.00001         10.0000         1.00000         1.00000         1.00000         1.00000        0.999988         1.00000         1.00000         1.00000    
   8      1.00000         1.00001         1.00000         1.00000         1.00000         1.00000         1.00000        0.999987        0.999987         1.00000    
   9      1.00000         1.00000         1.00000         1.00000         1.00000         1.00000         1.00000        0.999987         1.00000         1.00000    
  10      1.00000         1.00000         1.00000         1.00000         1.00000         1.00000         1.00000         1.00000         1.00000         1.00000    
  11      1.00000         1.00000         1.00000         1.00000         1.00000         1.00000         1.00000         1.00000         1.00000         1.00000    
  12      1.00000         1.00000         1.00000         1.00000         1.00000         1.00000         1.00000         1.00000         1.00000         1.00000    
  13      1.00000         1.00000         1.00000         1.00000         1.00000         1.00000         1.00000         1.00000         1.00000         1.00000    
  14      1.00000         1.00000         1.00000         1.00000         1.00000         1.00000         1.00000         1.00000         1.00000         1.00000    
  15      1.00000         1.00000         1.00000         1.00000         1.00000         1.00000         1.00000         1.00000         1.00000         1.00000    
1
  CONCENTRATION IN LAYER   2 AT END OF TIME STEP  45 IN STRESS PERIOD    2
  ---------------------------------------------------------------------------

                1               2               3               4               5               6               7               8               9              10
 ................................................................................................................................................................
   1      1.00000         1.00000         1.00000         1.00000         1.00000         1.00000         1.00000         1.00000         1.00000         1.00000    
   2      1.00000         1.00000         1.00000         1.00000         1.00000         1.00000         1.00000         1.00000         1.00000         1.00000    
   3      1.00000         1.00000         1.00000         1.00000         1.00000         1.00000         1.00000         1.00000         1.00000         1.00000    
   4      1.00000         1.00000         1.00000         1.00000         1.00000         1.00000         1.00000         1.00000         1.00000         1.00000    
   5      1.00000         1.00000         1.00000         1.00000         1.00000         1.00000         1.00000         1.00000         1.00000         1.00000    
   6      1.00000         1.00000         1.00000         1.00000         1.00000         1.00000         1.00000         1.00000         1.00000         1.00000    
   7      1.00000         1.00000         1.00000         1.00000         1.00000         1.00000         1.00000         1.00000         1.00000         1.00000    
   8      1.00000         1.00000         1.00000         1.00000         1.00000         1.00000         1.00000         1.00000         1.00000         1.00000    
   9      1.00000         1.00000         1.00000         1.00000         1.00000         1.00000         1.00000         1.00000         1.00000         1.00000    
  10      1.00000         1.00000         1.00000         1.00000         1.00000         1.00000         1.00000         1.00000         1.00000         1.00000    
  11      1.00000         1.00000         1.00000         1.00000         1.00000         1.00000         1.00000         1.00000         1.00000         1.00000    
  12      1.00000         1.00000         1.00000         1.00000         1.00000         1.00000         1.00000         1.00000         1.00000         1.00000    
  13      1.00000         1.00000         1.00000         1.00000         1.00000         1.00000         1.00000         1.00000         1.00000         1.00000    
  14      1.00000         1.00000         1.00000         1.00000         1.00000         1.00000         1.00000         1.00000         1.00000         1.00000    
  15      1.00000         1.00000         1.00000         1.00000         1.00000         1.00000         1.00000         1.00000         1.00000         1.00000    
1
  CONCENTRATION IN LAYER   3 AT END OF TIME STEP  45 IN STRESS PERIOD    2
  ---------------------------------------------------------------------------

                1               2               3               4               5               6               7               8               9              10
 ................................................................................................................................................................
   1      1.00000         1.00000         1.00000         1.00000         1.00000         1.00000         1.00000         1.00000         1.00000         1.00000    
   2      1.00000         1.00000         1.00000         1.00000         1.00000         1.00000         1.00000         1.00000         1.00000         1.00000    
   3      1.00000         1.00000         1.00000         1.00000         1.00000         1.00000         1.00000         1.00000         1.00000         1.00000    
   4      1.00000         1.00000         1.00000         1.00000         1.00000         1.00000         1.00000         1.00000         1.00000         1.00000    
   5      1.00000         1.00000         1.00000         1.00000         1.00000         1.00000         1.00000         1.00000         1.00000         1.00000    
   6      1.00000         1.00000         1.00000         1.00000         1.00000         1.00000         1.00000         1.00000         1.00000         1.00000    
   7      1.00000         1.00000         1.00000         1.00000         1.00000         1.00000         1.00000         1.00000         1.00000         1.00000    
   8      1.00000         1.00000         1.00000         1.00000         1.00000         1.00000         1.00000         1.00000         1.00000         1.00000    
   9      1.00000         1.00000         1.00000         1.00000         1.00000         1.00000         1.00000         1.00000         1.00000         1.00000    
  10      1.00000         1.00000         1.00000         1.00000         1.00000         1.00000         1.00000         1.00000         1.00000         1.00000    
  11      1.00000         1.00000         1.00000         1.00000         1.00000         1.00000         1.00000         1.00000         1.00000         1.00000    
  12      1.00000         1.00000         1.00000         1.00000         1.00000         1.00000         1.00000         1.00000         1.00000         1.00000    
  13      1.00000         1.00000         1.00000         1.00000         1.00000         1.00000         1.00000         1.00000         1.00000         1.00000    
  14      1.00000         1.00000         1.00000         1.00000         1.00000         1.00000         1.00000         1.00000         1.00000         1.00000    
  15      1.00000         1.00000         1.00000         1.00000         1.00000         1.00000         1.00000         1.00000         1.00000         1.00000    

 CONCENTRATION WILL BE SAVED ON UNIT 1030 AT END OF TIME STEP   45, STRESS PERIOD    2


  MASS BUDGET FOR ENTIRE MODEL AT END OF TIME STEP   45, STRESS PERIOD   2
  ---------------------------------------------------------------------------------------------------

     CUMULATIVE MASS      M       RATES FOR THIS TIME STEP      M/T          PACKAGE NAME    
     ------------------                 ------------------------                     ----------------

           IN:                                      IN:
           ---                                      ---
     STORAGE-AQUEOUS =           9.7293       STORAGE-AQUEOUS =           2.0475     MST                              
                 RIV =           0.0000                   RIV =           0.0000     SSM_RIV-1                        
                 CHD =           0.0000                   CHD =           0.0000     SSM_CHD-1                        
                 CNC =           4.0564                   CNC =           0.8525     CNC_0                            

            TOTAL IN =          13.7857              TOTAL IN =           2.9000

          OUT:                                     OUT:
          ----                                     ----
     STORAGE-AQUEOUS =           4.2697       STORAGE-AQUEOUS =           0.8966     MST                              
                 RIV =           0.0000                   RIV =           0.0000     SSM_RIV-1                        
                 CHD =           9.1481                   CHD =           1.9259     SSM_CHD-1                        
                 CNC =           0.3678                   CNC =       7.7435E-02     CNC_0                            

           TOTAL OUT =          13.7857             TOTAL OUT =           2.9000

            IN - OUT =       4.6408E-10              IN - OUT =      -1.2663E-09

 PERCENT DISCREPANCY =           0.00     PERCENT DISCREPANCY =          -0.00




         TIME SUMMARY AT END OF TIME STEP   45 IN STRESS PERIOD    2
                    SECONDS     MINUTES      HOURS       DAYS        YEARS
                    -----------------------------------------------------------
   TIME STEP LENGTH  7200.0      120.00      2.0000     8.33333E-02 2.28154E-04
 STRESS PERIOD TIME 3.24000E+05  5400.0      90.000      3.7500     1.02669E-02
         TOTAL TIME 4.10400E+05  6840.0      114.00      4.7500     1.30048E-02


end timestep


start timestep kper="2" kstp="46" mode="normal"

 UBDSV1 SAVING  STORAGE-AQUEOUS ON UNIT   1029 AT TIME STEP     46, STRESS PERIOD      2
 UBDSV1 SAVING     FLOW-JA-FACE ON UNIT   1029 AT TIME STEP     46, STRESS PERIOD      2
 UBDSV06 SAVING  SOURCE-SINK MIX IN MODEL GWT_RIVERBASE    PACKAGE GWT_RIVERBASE   CONNECTED TO MODEL GWT_RIVERBASE    PACKAGE SSM              ON UNIT   1029 AT TIME STEP     46, STRESS PERIOD      2
 UBDSV06 SAVING              CNC IN MODEL GWT_RIVERBASE    PACKAGE GWT_RIVERBASE   CONNECTED TO MODEL GWT_RIVERBASE    PACKAGE CNC_0            ON UNIT   1029 AT TIME STEP     46, STRESS PERIOD      2
1
  CONCENTRATION IN LAYER   1 AT END OF TIME STEP  46 IN STRESS PERIOD    2
  ---------------------------------------------------------------------------

                1               2               3               4               5               6               7               8               9              10
 ................................................................................................................................................................
   1      1.00000         1.00000         1.00000         1.00000         1.00000         1.00000         1.00000         1.00000         1.00000         1.00000    
   2     0.999990         1.00000        0.999990         1.00000         1.00000         1.00000         1.00000         1.00000         1.00000         1.00000    
   3      1.00000        0.999989         1.00000         1.00000         1.00000         1.00000         1.00000         1.00000         1.00000         1.00000    
   4      1.00000         1.00000        0.999989         1.00000         1.00000         1.00000         1.00000         1.00000         1.00000         1.00000    
   5      1.00000         1.00001         1.00000        0.999989        0.999988         1.00000         1.00000         1.00000         1.00000         1.00000    
   6      1.00002         10.0000         1.00000        0.999988         1.00000        0.999988         1.00000         1.00000         1.00000         1.00000    
   7      1.00001         10.0000         1.00000         1.00000         1.00000         1.00000        0.999988         1.00000         1.00000         1.00000    
   8      1.00000         1.00001         1.00000         1.00000         1.00000         1.00000         1.00000        0.999987        0.999987         1.00000    
   9      1.00000         1.00000         1.00000         1.00000         1.00000         1.00000         1.00000        0.999987         1.00000         1.00000    
  10      1.00000         1.00000         1.00000         1.00000         1.00000         1.00000         1.00000         1.00000         1.00000         1.00000    
  11      1.00000         1.00000         1.00000         1.00000         1.00000         1.00000         1.00000         1.00000         1.00000         1.00000    
  12      1.00000         1.00000         1.00000         1.00000         1.00000         1.00000         1.00000         1.00000         1.00000         1.00000    
  13      1.00000         1.00000         1.00000         1.00000         1.00000         1.00000         1.00000         1.00000         1.00000         1.00000    
  14      1.00000         1.00000         1.00000         1.00000         1.00000         1.00000         1.00000         1.00000         1.00000         1.00000    
  15      1.00000         1.00000         1.00000         1.00000         1.00000         1.00000         1.00000         1.00000         1.00000         1.00000    
1
  CONCENTRATION IN LAYER   2 AT END OF TIME STEP  46 IN STRESS PERIOD    2
  ---------------------------------------------------------------------------

                1               2               3               4               5               6               7               8               9              10
 ................................................................................................................................................................
   1      1.00000         1.00000         1.00000         1.00000         1.00000         1.00000         1.00000         1.00000         1.00000         1.00000    
   2      1.00000         1.00000         1.00000         1.00000         1.00000         1.00000         1.00000         1.00000         1.00000         1.00000    
   3      1.00000         1.00000         1.00000         1.00000         1.00000         1.00000         1.00000         1.00000         1.00000         1.00000    
   4      1.00000         1.00000         1.00000         1.00000         1.00000         1.00000         1.00000         1.00000         1.00000         1.00000    
   5      1.00000         1.00000         1.00000         1.00000         1.00000         1.00000         1.00000         1.00000         1.00000         1.00000    
   6      1.00000         1.00000         1.00000         1.00000         1.00000         1.00000         1.00000         1.00000         1.00000         1.00000    
   7      1.00000         1.00000         1.00000         1.00000         1.00000         1.00000         1.00000         1.00000         1.00000         1.00000    
   8      1.00000         1.00000         1.00000         1.00000         1.00000         1.00000         1.00000         1.00000         1.00000         1.00000    
   9      1.00000         1.00000         1.00000         1.00000         1.00000         1.00000         1.00000         1.00000         1.00000         1.00000    
  10      1.00000         1.00000         1.00000         1.00000         1.00000         1.00000         1.00000         1.00000         1.00000         1.00000    
  11      1.00000         1.00000         1.00000         1.00000         1.00000         1.00000         1.00000         1.00000         1.00000         1.00000    
  12      1.00000         1.00000         1.00000         1.00000         1.00000         1.00000         1.00000         1.00000         1.00000         1.00000    
  13      1.00000         1.00000         1.00000         1.00000         1.00000         1.00000         1.00000         1.00000         1.00000         1.00000    
  14      1.00000         1.00000         1.00000         1.00000         1.00000         1.00000         1.00000         1.00000         1.00000         1.00000    
  15      1.00000         1.00000         1.00000         1.00000         1.00000         1.00000         1.00000         1.00000         1.00000         1.00000    
1
  CONCENTRATION IN LAYER   3 AT END OF TIME STEP  46 IN STRESS PERIOD    2
  ---------------------------------------------------------------------------

                1               2               3               4               5               6               7               8               9              10
 ................................................................................................................................................................
   1      1.00000         1.00000         1.00000         1.00000         1.00000         1.00000         1.00000         1.00000         1.00000         1.00000    
   2      1.00000         1.00000         1.00000         1.00000         1.00000         1.00000         1.00000         1.00000         1.00000         1.00000    
   3      1.00000         1.00000         1.00000         1.00000         1.00000         1.00000         1.00000         1.00000         1.00000         1.00000    
   4      1.00000         1.00000         1.00000         1.00000         1.00000         1.00000         1.00000         1.00000         1.00000         1.00000    
   5      1.00000         1.00000         1.00000         1.00000         1.00000         1.00000         1.00000         1.00000         1.00000         1.00000    
   6      1.00000         1.00000         1.00000         1.00000         1.00000         1.00000         1.00000         1.00000         1.00000         1.00000    
   7      1.00000         1.00000         1.00000         1.00000         1.00000         1.00000         1.00000         1.00000         1.00000         1.00000    
   8      1.00000         1.00000         1.00000         1.00000         1.00000         1.00000         1.00000         1.00000         1.00000         1.00000    
   9      1.00000         1.00000         1.00000         1.00000         1.00000         1.00000         1.00000         1.00000         1.00000         1.00000    
  10      1.00000         1.00000         1.00000         1.00000         1.00000         1.00000         1.00000         1.00000         1.00000         1.00000    
  11      1.00000         1.00000         1.00000         1.00000         1.00000         1.00000         1.00000         1.00000         1.00000         1.00000    
  12      1.00000         1.00000         1.00000         1.00000         1.00000         1.00000         1.00000         1.00000         1.00000         1.00000    
  13      1.00000         1.00000         1.00000         1.00000         1.00000         1.00000         1.00000         1.00000         1.00000         1.00000    
  14      1.00000         1.00000         1.00000         1.00000         1.00000         1.00000         1.00000         1.00000         1.00000         1.00000    
  15      1.00000         1.00000         1.00000         1.00000         1.00000         1.00000         1.00000         1.00000         1.00000         1.00000    

 CONCENTRATION WILL BE SAVED ON UNIT 1030 AT END OF TIME STEP   46, STRESS PERIOD    2


  MASS BUDGET FOR ENTIRE MODEL AT END OF TIME STEP   46, STRESS PERIOD   2
  ---------------------------------------------------------------------------------------------------

     CUMULATIVE MASS      M       RATES FOR THIS TIME STEP      M/T          PACKAGE NAME    
     ------------------                 ------------------------                     ----------------

           IN:                                      IN:
           ---                                      ---
     STORAGE-AQUEOUS =           9.8999       STORAGE-AQUEOUS =           2.0475     MST                              
                 RIV =           0.0000                   RIV =           0.0000     SSM_RIV-1                        
                 CHD =           0.0000                   CHD =           0.0000     SSM_CHD-1                        
                 CNC =           4.1274                   CNC =           0.8525     CNC_0                            

            TOTAL IN =          14.0273              TOTAL IN =           2.9000

          OUT:                                     OUT:
          ----                                     ----
     STORAGE-AQUEOUS =           4.3444       STORAGE-AQUEOUS =           0.8966     MST                              
                 RIV =           0.0000                   RIV =           0.0000     SSM_RIV-1                        
                 CHD =           9.3086                   CHD =           1.9259     SSM_CHD-1                        
                 CNC =           0.3743                   CNC =       7.7435E-02     CNC_0                            

           TOTAL OUT =          14.0273             TOTAL OUT =           2.9000

            IN - OUT =       3.8062E-10              IN - OUT =      -1.0015E-09

 PERCENT DISCREPANCY =           0.00     PERCENT DISCREPANCY =          -0.00




         TIME SUMMARY AT END OF TIME STEP   46 IN STRESS PERIOD    2
                    SECONDS     MINUTES      HOURS       DAYS        YEARS
                    -----------------------------------------------------------
   TIME STEP LENGTH  7200.0      120.00      2.0000     8.33333E-02 2.28154E-04
 STRESS PERIOD TIME 3.31200E+05  5520.0      92.000      3.8333     1.04951E-02
         TOTAL TIME 4.17600E+05  6960.0      116.00      4.8333     1.32329E-02


end timestep


start timestep kper="2" kstp="47" mode="normal"

 UBDSV1 SAVING  STORAGE-AQUEOUS ON UNIT   1029 AT TIME STEP     47, STRESS PERIOD      2
 UBDSV1 SAVING     FLOW-JA-FACE ON UNIT   1029 AT TIME STEP     47, STRESS PERIOD      2
 UBDSV06 SAVING  SOURCE-SINK MIX IN MODEL GWT_RIVERBASE    PACKAGE GWT_RIVERBASE   CONNECTED TO MODEL GWT_RIVERBASE    PACKAGE SSM              ON UNIT   1029 AT TIME STEP     47, STRESS PERIOD      2
 UBDSV06 SAVING              CNC IN MODEL GWT_RIVERBASE    PACKAGE GWT_RIVERBASE   CONNECTED TO MODEL GWT_RIVERBASE    PACKAGE CNC_0            ON UNIT   1029 AT TIME STEP     47, STRESS PERIOD      2
1
  CONCENTRATION IN LAYER   1 AT END OF TIME STEP  47 IN STRESS PERIOD    2
  ---------------------------------------------------------------------------

                1               2               3               4               5               6               7               8               9              10
 ................................................................................................................................................................
   1      1.00000         1.00000         1.00000         1.00000         1.00000         1.00000         1.00000         1.00000         1.00000         1.00000    
   2     0.999990         1.00000        0.999989         1.00000         1.00000         1.00000         1.00000         1.00000         1.00000         1.00000    
   3      1.00000        0.999989         1.00000         1.00000         1.00000         1.00000         1.00000         1.00000         1.00000         1.00000    
   4      1.00000         1.00000        0.999989         1.00000         1.00000         1.00000         1.00000         1.00000         1.00000         1.00000    
   5      1.00000         1.00001         1.00000        0.999989        0.999988         1.00000         1.00000         1.00000         1.00000         1.00000    
   6      1.00002         10.0000         1.00000        0.999988         1.00000        0.999988         1.00000         1.00000         1.00000         1.00000    
   7      1.00001         10.0000         1.00000         1.00000         1.00000         1.00000        0.999987         1.00000         1.00000         1.00000    
   8      1.00000         1.00001         1.00000         1.00000         1.00000         1.00000         1.00000        0.999987        0.999986         1.00000    
   9      1.00000         1.00000         1.00000         1.00000         1.00000         1.00000         1.00000        0.999987         1.00000         1.00000    
  10      1.00000         1.00000         1.00000         1.00000         1.00000         1.00000         1.00000         1.00000         1.00000         1.00000    
  11      1.00000         1.00000         1.00000         1.00000         1.00000         1.00000         1.00000         1.00000         1.00000         1.00000    
  12      1.00000         1.00000         1.00000         1.00000         1.00000         1.00000         1.00000         1.00000         1.00000         1.00000    
  13      1.00000         1.00000         1.00000         1.00000         1.00000         1.00000         1.00000         1.00000         1.00000         1.00000    
  14      1.00000         1.00000         1.00000         1.00000         1.00000         1.00000         1.00000         1.00000         1.00000         1.00000    
  15      1.00000         1.00000         1.00000         1.00000         1.00000         1.00000         1.00000         1.00000         1.00000         1.00000    
1
  CONCENTRATION IN LAYER   2 AT END OF TIME STEP  47 IN STRESS PERIOD    2
  ---------------------------------------------------------------------------

                1               2               3               4               5               6               7               8               9              10
 ................................................................................................................................................................
   1      1.00000         1.00000         1.00000         1.00000         1.00000         1.00000         1.00000         1.00000         1.00000         1.00000    
   2      1.00000         1.00000         1.00000         1.00000         1.00000         1.00000         1.00000         1.00000         1.00000         1.00000    
   3      1.00000         1.00000         1.00000         1.00000         1.00000         1.00000         1.00000         1.00000         1.00000         1.00000    
   4      1.00000         1.00000         1.00000         1.00000         1.00000         1.00000         1.00000         1.00000         1.00000         1.00000    
   5      1.00000         1.00000         1.00000         1.00000         1.00000         1.00000         1.00000         1.00000         1.00000         1.00000    
   6      1.00000         1.00000         1.00000         1.00000         1.00000         1.00000         1.00000         1.00000         1.00000         1.00000    
   7      1.00000         1.00000         1.00000         1.00000         1.00000         1.00000         1.00000         1.00000         1.00000         1.00000    
   8      1.00000         1.00000         1.00000         1.00000         1.00000         1.00000         1.00000         1.00000         1.00000         1.00000    
   9      1.00000         1.00000         1.00000         1.00000         1.00000         1.00000         1.00000         1.00000         1.00000         1.00000    
  10      1.00000         1.00000         1.00000         1.00000         1.00000         1.00000         1.00000         1.00000         1.00000         1.00000    
  11      1.00000         1.00000         1.00000         1.00000         1.00000         1.00000         1.00000         1.00000         1.00000         1.00000    
  12      1.00000         1.00000         1.00000         1.00000         1.00000         1.00000         1.00000         1.00000         1.00000         1.00000    
  13      1.00000         1.00000         1.00000         1.00000         1.00000         1.00000         1.00000         1.00000         1.00000         1.00000    
  14      1.00000         1.00000         1.00000         1.00000         1.00000         1.00000         1.00000         1.00000         1.00000         1.00000    
  15      1.00000         1.00000         1.00000         1.00000         1.00000         1.00000         1.00000         1.00000         1.00000         1.00000    
1
  CONCENTRATION IN LAYER   3 AT END OF TIME STEP  47 IN STRESS PERIOD    2
  ---------------------------------------------------------------------------

                1               2               3               4               5               6               7               8               9              10
 ................................................................................................................................................................
   1      1.00000         1.00000         1.00000         1.00000         1.00000         1.00000         1.00000         1.00000         1.00000         1.00000    
   2      1.00000         1.00000         1.00000         1.00000         1.00000         1.00000         1.00000         1.00000         1.00000         1.00000    
   3      1.00000         1.00000         1.00000         1.00000         1.00000         1.00000         1.00000         1.00000         1.00000         1.00000    
   4      1.00000         1.00000         1.00000         1.00000         1.00000         1.00000         1.00000         1.00000         1.00000         1.00000    
   5      1.00000         1.00000         1.00000         1.00000         1.00000         1.00000         1.00000         1.00000         1.00000         1.00000    
   6      1.00000         1.00000         1.00000         1.00000         1.00000         1.00000         1.00000         1.00000         1.00000         1.00000    
   7      1.00000         1.00000         1.00000         1.00000         1.00000         1.00000         1.00000         1.00000         1.00000         1.00000    
   8      1.00000         1.00000         1.00000         1.00000         1.00000         1.00000         1.00000         1.00000         1.00000         1.00000    
   9      1.00000         1.00000         1.00000         1.00000         1.00000         1.00000         1.00000         1.00000         1.00000         1.00000    
  10      1.00000         1.00000         1.00000         1.00000         1.00000         1.00000         1.00000         1.00000         1.00000         1.00000    
  11      1.00000         1.00000         1.00000         1.00000         1.00000         1.00000         1.00000         1.00000         1.00000         1.00000    
  12      1.00000         1.00000         1.00000         1.00000         1.00000         1.00000         1.00000         1.00000         1.00000         1.00000    
  13      1.00000         1.00000         1.00000         1.00000         1.00000         1.00000         1.00000         1.00000         1.00000         1.00000    
  14      1.00000         1.00000         1.00000         1.00000         1.00000         1.00000         1.00000         1.00000         1.00000         1.00000    
  15      1.00000         1.00000         1.00000         1.00000         1.00000         1.00000         1.00000         1.00000         1.00000         1.00000    

 CONCENTRATION WILL BE SAVED ON UNIT 1030 AT END OF TIME STEP   47, STRESS PERIOD    2


  MASS BUDGET FOR ENTIRE MODEL AT END OF TIME STEP   47, STRESS PERIOD   2
  ---------------------------------------------------------------------------------------------------

     CUMULATIVE MASS      M       RATES FOR THIS TIME STEP      M/T          PACKAGE NAME    
     ------------------                 ------------------------                     ----------------

           IN:                                      IN:
           ---                                      ---
     STORAGE-AQUEOUS =          10.0705       STORAGE-AQUEOUS =           2.0475     MST                              
                 RIV =           0.0000                   RIV =           0.0000     SSM_RIV-1                        
                 CHD =           0.0000                   CHD =           0.0000     SSM_CHD-1                        
                 CNC =           4.1985                   CNC =           0.8525     CNC_0                            

            TOTAL IN =          14.2690              TOTAL IN =           2.9000

          OUT:                                     OUT:
          ----                                     ----
     STORAGE-AQUEOUS =           4.4191       STORAGE-AQUEOUS =           0.8966     MST                              
                 RIV =           0.0000                   RIV =           0.0000     SSM_RIV-1                        
                 CHD =           9.4691                   CHD =           1.9259     SSM_CHD-1                        
                 CNC =           0.3807                   CNC =       7.7435E-02     CNC_0                            

           TOTAL OUT =          14.2690             TOTAL OUT =           2.9000

            IN - OUT =       5.6762E-10              IN - OUT =       2.2440E-09

 PERCENT DISCREPANCY =           0.00     PERCENT DISCREPANCY =           0.00




         TIME SUMMARY AT END OF TIME STEP   47 IN STRESS PERIOD    2
                    SECONDS     MINUTES      HOURS       DAYS        YEARS
                    -----------------------------------------------------------
   TIME STEP LENGTH  7200.0      120.00      2.0000     8.33333E-02 2.28154E-04
 STRESS PERIOD TIME 3.38400E+05  5640.0      94.000      3.9167     1.07232E-02
         TOTAL TIME 4.24800E+05  7080.0      118.00      4.9167     1.34611E-02


end timestep


start timestep kper="2" kstp="48" mode="normal"

 UBDSV1 SAVING  STORAGE-AQUEOUS ON UNIT   1029 AT TIME STEP     48, STRESS PERIOD      2
 UBDSV1 SAVING     FLOW-JA-FACE ON UNIT   1029 AT TIME STEP     48, STRESS PERIOD      2
 UBDSV06 SAVING  SOURCE-SINK MIX IN MODEL GWT_RIVERBASE    PACKAGE GWT_RIVERBASE   CONNECTED TO MODEL GWT_RIVERBASE    PACKAGE SSM              ON UNIT   1029 AT TIME STEP     48, STRESS PERIOD      2
 UBDSV06 SAVING              CNC IN MODEL GWT_RIVERBASE    PACKAGE GWT_RIVERBASE   CONNECTED TO MODEL GWT_RIVERBASE    PACKAGE CNC_0            ON UNIT   1029 AT TIME STEP     48, STRESS PERIOD      2
1
  CONCENTRATION IN LAYER   1 AT END OF TIME STEP  48 IN STRESS PERIOD    2
  ---------------------------------------------------------------------------

                1               2               3               4               5               6               7               8               9              10
 ................................................................................................................................................................
   1      1.00000         1.00000         1.00000         1.00000         1.00000         1.00000         1.00000         1.00000         1.00000         1.00000    
   2     0.999989         1.00000        0.999989         1.00000         1.00000         1.00000         1.00000         1.00000         1.00000         1.00000    
   3      1.00000        0.999989         1.00000         1.00000         1.00000         1.00000         1.00000         1.00000         1.00000         1.00000    
   4      1.00000         1.00000        0.999989         1.00000         1.00000         1.00000         1.00000         1.00000         1.00000         1.00000    
   5      1.00000         1.00001         1.00000        0.999988        0.999988         1.00000         1.00000         1.00000         1.00000         1.00000    
   6      1.00002         10.0000         1.00000        0.999988         1.00000        0.999987         1.00000         1.00000         1.00000         1.00000    
   7      1.00001         10.0000         1.00000         1.00000         1.00000         1.00000        0.999987         1.00000         1.00000         1.00000    
   8      1.00000         1.00001         1.00000         1.00000         1.00000         1.00000         1.00000        0.999987        0.999986         1.00000    
   9      1.00000         1.00000         1.00000         1.00000         1.00000         1.00000         1.00000        0.999986         1.00000         1.00000    
  10      1.00000         1.00000         1.00000         1.00000         1.00000         1.00000         1.00000         1.00000         1.00000         1.00000    
  11      1.00000         1.00000         1.00000         1.00000         1.00000         1.00000         1.00000         1.00000         1.00000         1.00000    
  12      1.00000         1.00000         1.00000         1.00000         1.00000         1.00000         1.00000         1.00000         1.00000         1.00000    
  13      1.00000         1.00000         1.00000         1.00000         1.00000         1.00000         1.00000         1.00000         1.00000         1.00000    
  14      1.00000         1.00000         1.00000         1.00000         1.00000         1.00000         1.00000         1.00000         1.00000         1.00000    
  15      1.00000         1.00000         1.00000         1.00000         1.00000         1.00000         1.00000         1.00000         1.00000         1.00000    
1
  CONCENTRATION IN LAYER   2 AT END OF TIME STEP  48 IN STRESS PERIOD    2
  ---------------------------------------------------------------------------

                1               2               3               4               5               6               7               8               9              10
 ................................................................................................................................................................
   1      1.00000         1.00000         1.00000         1.00000         1.00000         1.00000         1.00000         1.00000         1.00000         1.00000    
   2      1.00000         1.00000         1.00000         1.00000         1.00000         1.00000         1.00000         1.00000         1.00000         1.00000    
   3      1.00000         1.00000         1.00000         1.00000         1.00000         1.00000         1.00000         1.00000         1.00000         1.00000    
   4      1.00000         1.00000         1.00000         1.00000         1.00000         1.00000         1.00000         1.00000         1.00000         1.00000    
   5      1.00000         1.00000         1.00000         1.00000         1.00000         1.00000         1.00000         1.00000         1.00000         1.00000    
   6      1.00000         1.00000         1.00000         1.00000         1.00000         1.00000         1.00000         1.00000         1.00000         1.00000    
   7      1.00000         1.00000         1.00000         1.00000         1.00000         1.00000         1.00000         1.00000         1.00000         1.00000    
   8      1.00000         1.00000         1.00000         1.00000         1.00000         1.00000         1.00000         1.00000         1.00000         1.00000    
   9      1.00000         1.00000         1.00000         1.00000         1.00000         1.00000         1.00000         1.00000         1.00000         1.00000    
  10      1.00000         1.00000         1.00000         1.00000         1.00000         1.00000         1.00000         1.00000         1.00000         1.00000    
  11      1.00000         1.00000         1.00000         1.00000         1.00000         1.00000         1.00000         1.00000         1.00000         1.00000    
  12      1.00000         1.00000         1.00000         1.00000         1.00000         1.00000         1.00000         1.00000         1.00000         1.00000    
  13      1.00000         1.00000         1.00000         1.00000         1.00000         1.00000         1.00000         1.00000         1.00000         1.00000    
  14      1.00000         1.00000         1.00000         1.00000         1.00000         1.00000         1.00000         1.00000         1.00000         1.00000    
  15      1.00000         1.00000         1.00000         1.00000         1.00000         1.00000         1.00000         1.00000         1.00000         1.00000    
1
  CONCENTRATION IN LAYER   3 AT END OF TIME STEP  48 IN STRESS PERIOD    2
  ---------------------------------------------------------------------------

                1               2               3               4               5               6               7               8               9              10
 ................................................................................................................................................................
   1      1.00000         1.00000         1.00000         1.00000         1.00000         1.00000         1.00000         1.00000         1.00000         1.00000    
   2      1.00000         1.00000         1.00000         1.00000         1.00000         1.00000         1.00000         1.00000         1.00000         1.00000    
   3      1.00000         1.00000         1.00000         1.00000         1.00000         1.00000         1.00000         1.00000         1.00000         1.00000    
   4      1.00000         1.00000         1.00000         1.00000         1.00000         1.00000         1.00000         1.00000         1.00000         1.00000    
   5      1.00000         1.00000         1.00000         1.00000         1.00000         1.00000         1.00000         1.00000         1.00000         1.00000    
   6      1.00000         1.00000         1.00000         1.00000         1.00000         1.00000         1.00000         1.00000         1.00000         1.00000    
   7      1.00000         1.00000         1.00000         1.00000         1.00000         1.00000         1.00000         1.00000         1.00000         1.00000    
   8      1.00000         1.00000         1.00000         1.00000         1.00000         1.00000         1.00000         1.00000         1.00000         1.00000    
   9      1.00000         1.00000         1.00000         1.00000         1.00000         1.00000         1.00000         1.00000         1.00000         1.00000    
  10      1.00000         1.00000         1.00000         1.00000         1.00000         1.00000         1.00000         1.00000         1.00000         1.00000    
  11      1.00000         1.00000         1.00000         1.00000         1.00000         1.00000         1.00000         1.00000         1.00000         1.00000    
  12      1.00000         1.00000         1.00000         1.00000         1.00000         1.00000         1.00000         1.00000         1.00000         1.00000    
  13      1.00000         1.00000         1.00000         1.00000         1.00000         1.00000         1.00000         1.00000         1.00000         1.00000    
  14      1.00000         1.00000         1.00000         1.00000         1.00000         1.00000         1.00000         1.00000         1.00000         1.00000    
  15      1.00000         1.00000         1.00000         1.00000         1.00000         1.00000         1.00000         1.00000         1.00000         1.00000    

 CONCENTRATION WILL BE SAVED ON UNIT 1030 AT END OF TIME STEP   48, STRESS PERIOD    2


  MASS BUDGET FOR ENTIRE MODEL AT END OF TIME STEP   48, STRESS PERIOD   2
  ---------------------------------------------------------------------------------------------------

     CUMULATIVE MASS      M       RATES FOR THIS TIME STEP      M/T          PACKAGE NAME    
     ------------------                 ------------------------                     ----------------

           IN:                                      IN:
           ---                                      ---
     STORAGE-AQUEOUS =          10.2412       STORAGE-AQUEOUS =           2.0475     MST                              
                 RIV =           0.0000                   RIV =           0.0000     SSM_RIV-1                        
                 CHD =           0.0000                   CHD =           0.0000     SSM_CHD-1                        
                 CNC =           4.2695                   CNC =           0.8525     CNC_0                            

            TOTAL IN =          14.5107              TOTAL IN =           2.9000

          OUT:                                     OUT:
          ----                                     ----
     STORAGE-AQUEOUS =           4.4939       STORAGE-AQUEOUS =           0.8966     MST                              
                 RIV =           0.0000                   RIV =           0.0000     SSM_RIV-1                        
                 CHD =           9.6296                   CHD =           1.9259     SSM_CHD-1                        
                 CNC =           0.3872                   CNC =       7.7434E-02     CNC_0                            

           TOTAL OUT =          14.5107             TOTAL OUT =           2.9000

            IN - OUT =       9.3870E-10              IN - OUT =       4.4529E-09

 PERCENT DISCREPANCY =           0.00     PERCENT DISCREPANCY =           0.00




         TIME SUMMARY AT END OF TIME STEP   48 IN STRESS PERIOD    2
                    SECONDS     MINUTES      HOURS       DAYS        YEARS
                    -----------------------------------------------------------
   TIME STEP LENGTH  7200.0      120.00      2.0000     8.33333E-02 2.28154E-04
 STRESS PERIOD TIME 3.45600E+05  5760.0      96.000      4.0000     1.09514E-02
         TOTAL TIME 4.32000E+05  7200.0      120.00      5.0000     1.36893E-02


end timestep


start timestep kper="2" kstp="49" mode="normal"

 UBDSV1 SAVING  STORAGE-AQUEOUS ON UNIT   1029 AT TIME STEP     49, STRESS PERIOD      2
 UBDSV1 SAVING     FLOW-JA-FACE ON UNIT   1029 AT TIME STEP     49, STRESS PERIOD      2
 UBDSV06 SAVING  SOURCE-SINK MIX IN MODEL GWT_RIVERBASE    PACKAGE GWT_RIVERBASE   CONNECTED TO MODEL GWT_RIVERBASE    PACKAGE SSM              ON UNIT   1029 AT TIME STEP     49, STRESS PERIOD      2
 UBDSV06 SAVING              CNC IN MODEL GWT_RIVERBASE    PACKAGE GWT_RIVERBASE   CONNECTED TO MODEL GWT_RIVERBASE    PACKAGE CNC_0            ON UNIT   1029 AT TIME STEP     49, STRESS PERIOD      2
1
  CONCENTRATION IN LAYER   1 AT END OF TIME STEP  49 IN STRESS PERIOD    2
  ---------------------------------------------------------------------------

                1               2               3               4               5               6               7               8               9              10
 ................................................................................................................................................................
   1      1.00000         1.00000         1.00000         1.00000         1.00000         1.00000         1.00000         1.00000         1.00000         1.00000    
   2     0.999989         1.00000        0.999989         1.00000         1.00000         1.00000         1.00000         1.00000         1.00000         1.00000    
   3      1.00000        0.999989         1.00000         1.00000         1.00000         1.00000         1.00000         1.00000         1.00000         1.00000    
   4      1.00000         1.00000        0.999988         1.00000         1.00000         1.00000         1.00000         1.00000         1.00000         1.00000    
   5      1.00000         1.00001         1.00000        0.999988        0.999988         1.00000         1.00000         1.00000         1.00000         1.00000    
   6      1.00002         10.0000         1.00000        0.999988         1.00000        0.999987         1.00000         1.00000         1.00000         1.00000    
   7      1.00001         10.0000         1.00000         1.00000         1.00000         1.00000        0.999987         1.00000         1.00000         1.00000    
   8      1.00000         1.00001         1.00000         1.00000         1.00000         1.00000         1.00000        0.999987        0.999986         1.00000    
   9      1.00000         1.00000         1.00000         1.00000         1.00000         1.00000         1.00000        0.999986         1.00000         1.00000    
  10      1.00000         1.00000         1.00000         1.00000         1.00000         1.00000         1.00000         1.00000         1.00000         1.00000    
  11      1.00000         1.00000         1.00000         1.00000         1.00000         1.00000         1.00000         1.00000         1.00000         1.00000    
  12      1.00000         1.00000         1.00000         1.00000         1.00000         1.00000         1.00000         1.00000         1.00000         1.00000    
  13      1.00000         1.00000         1.00000         1.00000         1.00000         1.00000         1.00000         1.00000         1.00000         1.00000    
  14      1.00000         1.00000         1.00000         1.00000         1.00000         1.00000         1.00000         1.00000         1.00000         1.00000    
  15      1.00000         1.00000         1.00000         1.00000         1.00000         1.00000         1.00000         1.00000         1.00000         1.00000    
1
  CONCENTRATION IN LAYER   2 AT END OF TIME STEP  49 IN STRESS PERIOD    2
  ---------------------------------------------------------------------------

                1               2               3               4               5               6               7               8               9              10
 ................................................................................................................................................................
   1      1.00000         1.00000         1.00000         1.00000         1.00000         1.00000         1.00000         1.00000         1.00000         1.00000    
   2      1.00000         1.00000         1.00000         1.00000         1.00000         1.00000         1.00000         1.00000         1.00000         1.00000    
   3      1.00000         1.00000         1.00000         1.00000         1.00000         1.00000         1.00000         1.00000         1.00000         1.00000    
   4      1.00000         1.00000         1.00000         1.00000         1.00000         1.00000         1.00000         1.00000         1.00000         1.00000    
   5      1.00000         1.00000         1.00000         1.00000         1.00000         1.00000         1.00000         1.00000         1.00000         1.00000    
   6      1.00000         1.00000         1.00000         1.00000         1.00000         1.00000         1.00000         1.00000         1.00000         1.00000    
   7      1.00000         1.00000         1.00000         1.00000         1.00000         1.00000         1.00000         1.00000         1.00000         1.00000    
   8      1.00000         1.00000         1.00000         1.00000         1.00000         1.00000         1.00000         1.00000         1.00000         1.00000    
   9      1.00000         1.00000         1.00000         1.00000         1.00000         1.00000         1.00000         1.00000         1.00000         1.00000    
  10      1.00000         1.00000         1.00000         1.00000         1.00000         1.00000         1.00000         1.00000         1.00000         1.00000    
  11      1.00000         1.00000         1.00000         1.00000         1.00000         1.00000         1.00000         1.00000         1.00000         1.00000    
  12      1.00000         1.00000         1.00000         1.00000         1.00000         1.00000         1.00000         1.00000         1.00000         1.00000    
  13      1.00000         1.00000         1.00000         1.00000         1.00000         1.00000         1.00000         1.00000         1.00000         1.00000    
  14      1.00000         1.00000         1.00000         1.00000         1.00000         1.00000         1.00000         1.00000         1.00000         1.00000    
  15      1.00000         1.00000         1.00000         1.00000         1.00000         1.00000         1.00000         1.00000         1.00000         1.00000    
1
  CONCENTRATION IN LAYER   3 AT END OF TIME STEP  49 IN STRESS PERIOD    2
  ---------------------------------------------------------------------------

                1               2               3               4               5               6               7               8               9              10
 ................................................................................................................................................................
   1      1.00000         1.00000         1.00000         1.00000         1.00000         1.00000         1.00000         1.00000         1.00000         1.00000    
   2      1.00000         1.00000         1.00000         1.00000         1.00000         1.00000         1.00000         1.00000         1.00000         1.00000    
   3      1.00000         1.00000         1.00000         1.00000         1.00000         1.00000         1.00000         1.00000         1.00000         1.00000    
   4      1.00000         1.00000         1.00000         1.00000         1.00000         1.00000         1.00000         1.00000         1.00000         1.00000    
   5      1.00000         1.00000         1.00000         1.00000         1.00000         1.00000         1.00000         1.00000         1.00000         1.00000    
   6      1.00000         1.00000         1.00000         1.00000         1.00000         1.00000         1.00000         1.00000         1.00000         1.00000    
   7      1.00000         1.00000         1.00000         1.00000         1.00000         1.00000         1.00000         1.00000         1.00000         1.00000    
   8      1.00000         1.00000         1.00000         1.00000         1.00000         1.00000         1.00000         1.00000         1.00000         1.00000    
   9      1.00000         1.00000         1.00000         1.00000         1.00000         1.00000         1.00000         1.00000         1.00000         1.00000    
  10      1.00000         1.00000         1.00000         1.00000         1.00000         1.00000         1.00000         1.00000         1.00000         1.00000    
  11      1.00000         1.00000         1.00000         1.00000         1.00000         1.00000         1.00000         1.00000         1.00000         1.00000    
  12      1.00000         1.00000         1.00000         1.00000         1.00000         1.00000         1.00000         1.00000         1.00000         1.00000    
  13      1.00000         1.00000         1.00000         1.00000         1.00000         1.00000         1.00000         1.00000         1.00000         1.00000    
  14      1.00000         1.00000         1.00000         1.00000         1.00000         1.00000         1.00000         1.00000         1.00000         1.00000    
  15      1.00000         1.00000         1.00000         1.00000         1.00000         1.00000         1.00000         1.00000         1.00000         1.00000    

 CONCENTRATION WILL BE SAVED ON UNIT 1030 AT END OF TIME STEP   49, STRESS PERIOD    2


  MASS BUDGET FOR ENTIRE MODEL AT END OF TIME STEP   49, STRESS PERIOD   2
  ---------------------------------------------------------------------------------------------------

     CUMULATIVE MASS      M       RATES FOR THIS TIME STEP      M/T          PACKAGE NAME    
     ------------------                 ------------------------                     ----------------

           IN:                                      IN:
           ---                                      ---
     STORAGE-AQUEOUS =          10.4118       STORAGE-AQUEOUS =           2.0475     MST                              
                 RIV =           0.0000                   RIV =           0.0000     SSM_RIV-1                        
                 CHD =           0.0000                   CHD =           0.0000     SSM_CHD-1                        
                 CNC =           4.3405                   CNC =           0.8525     CNC_0                            

            TOTAL IN =          14.7523              TOTAL IN =           2.9000

          OUT:                                     OUT:
          ----                                     ----
     STORAGE-AQUEOUS =           4.5686       STORAGE-AQUEOUS =           0.8966     MST                              
                 RIV =           0.0000                   RIV =           0.0000     SSM_RIV-1                        
                 CHD =           9.7901                   CHD =           1.9260     SSM_CHD-1                        
                 CNC =           0.3936                   CNC =       7.7434E-02     CNC_0                            

           TOTAL OUT =          14.7523             TOTAL OUT =           2.9000

            IN - OUT =       7.0230E-10              IN - OUT =      -2.8368E-09

 PERCENT DISCREPANCY =           0.00     PERCENT DISCREPANCY =          -0.00




         TIME SUMMARY AT END OF TIME STEP   49 IN STRESS PERIOD    2
                    SECONDS     MINUTES      HOURS       DAYS        YEARS
                    -----------------------------------------------------------
   TIME STEP LENGTH  7200.0      120.00      2.0000     8.33333E-02 2.28154E-04
 STRESS PERIOD TIME 3.52800E+05  5880.0      98.000      4.0833     1.11796E-02
         TOTAL TIME 4.39200E+05  7320.0      122.00      5.0833     1.39174E-02


end timestep


start timestep kper="2" kstp="50" mode="normal"

 UBDSV1 SAVING  STORAGE-AQUEOUS ON UNIT   1029 AT TIME STEP     50, STRESS PERIOD      2
 UBDSV1 SAVING     FLOW-JA-FACE ON UNIT   1029 AT TIME STEP     50, STRESS PERIOD      2
 UBDSV06 SAVING  SOURCE-SINK MIX IN MODEL GWT_RIVERBASE    PACKAGE GWT_RIVERBASE   CONNECTED TO MODEL GWT_RIVERBASE    PACKAGE SSM              ON UNIT   1029 AT TIME STEP     50, STRESS PERIOD      2
 UBDSV06 SAVING              CNC IN MODEL GWT_RIVERBASE    PACKAGE GWT_RIVERBASE   CONNECTED TO MODEL GWT_RIVERBASE    PACKAGE CNC_0            ON UNIT   1029 AT TIME STEP     50, STRESS PERIOD      2
1
  CONCENTRATION IN LAYER   1 AT END OF TIME STEP  50 IN STRESS PERIOD    2
  ---------------------------------------------------------------------------

                1               2               3               4               5               6               7               8               9              10
 ................................................................................................................................................................
   1      1.00000         1.00000         1.00000         1.00000         1.00000         1.00000         1.00000         1.00000         1.00000         1.00000    
   2     0.999989         1.00000        0.999989         1.00000         1.00000         1.00000         1.00000         1.00000         1.00000         1.00000    
   3      1.00000        0.999989         1.00000         1.00000         1.00000         1.00000         1.00000         1.00000         1.00000         1.00000    
   4      1.00000         1.00000        0.999988         1.00000         1.00000         1.00000         1.00000         1.00000         1.00000         1.00000    
   5      1.00000         1.00001         1.00000        0.999988        0.999987         1.00000         1.00000         1.00000         1.00000         1.00000    
   6      1.00002         10.0000         1.00000        0.999988         1.00000        0.999987         1.00000         1.00000         1.00000         1.00000    
   7      1.00001         10.0000         1.00000         1.00000         1.00000         1.00000        0.999987         1.00000         1.00000         1.00000    
   8      1.00000         1.00001         1.00000         1.00000         1.00000         1.00000         1.00000        0.999986        0.999986         1.00000    
   9      1.00000         1.00000         1.00000         1.00000         1.00000         1.00000         1.00000        0.999986         1.00000         1.00000    
  10      1.00000         1.00000         1.00000         1.00000         1.00000         1.00000         1.00000         1.00000         1.00000         1.00000    
  11      1.00000         1.00000         1.00000         1.00000         1.00000         1.00000         1.00000         1.00000         1.00000         1.00000    
  12      1.00000         1.00000         1.00000         1.00000         1.00000         1.00000         1.00000         1.00000         1.00000         1.00000    
  13      1.00000         1.00000         1.00000         1.00000         1.00000         1.00000         1.00000         1.00000         1.00000         1.00000    
  14      1.00000         1.00000         1.00000         1.00000         1.00000         1.00000         1.00000         1.00000         1.00000         1.00000    
  15      1.00000         1.00000         1.00000         1.00000         1.00000         1.00000         1.00000         1.00000         1.00000         1.00000    
1
  CONCENTRATION IN LAYER   2 AT END OF TIME STEP  50 IN STRESS PERIOD    2
  ---------------------------------------------------------------------------

                1               2               3               4               5               6               7               8               9              10
 ................................................................................................................................................................
   1      1.00000         1.00000         1.00000         1.00000         1.00000         1.00000         1.00000         1.00000         1.00000         1.00000    
   2      1.00000         1.00000         1.00000         1.00000         1.00000         1.00000         1.00000         1.00000         1.00000         1.00000    
   3      1.00000         1.00000         1.00000         1.00000         1.00000         1.00000         1.00000         1.00000         1.00000         1.00000    
   4      1.00000         1.00000         1.00000         1.00000         1.00000         1.00000         1.00000         1.00000         1.00000         1.00000    
   5      1.00000         1.00000         1.00000         1.00000         1.00000         1.00000         1.00000         1.00000         1.00000         1.00000    
   6      1.00000         1.00000         1.00000         1.00000         1.00000         1.00000         1.00000         1.00000         1.00000         1.00000    
   7      1.00000         1.00000         1.00000         1.00000         1.00000         1.00000         1.00000         1.00000         1.00000         1.00000    
   8      1.00000         1.00000         1.00000         1.00000         1.00000         1.00000         1.00000         1.00000         1.00000         1.00000    
   9      1.00000         1.00000         1.00000         1.00000         1.00000         1.00000         1.00000         1.00000         1.00000         1.00000    
  10      1.00000         1.00000         1.00000         1.00000         1.00000         1.00000         1.00000         1.00000         1.00000         1.00000    
  11      1.00000         1.00000         1.00000         1.00000         1.00000         1.00000         1.00000         1.00000         1.00000         1.00000    
  12      1.00000         1.00000         1.00000         1.00000         1.00000         1.00000         1.00000         1.00000         1.00000         1.00000    
  13      1.00000         1.00000         1.00000         1.00000         1.00000         1.00000         1.00000         1.00000         1.00000         1.00000    
  14      1.00000         1.00000         1.00000         1.00000         1.00000         1.00000         1.00000         1.00000         1.00000         1.00000    
  15      1.00000         1.00000         1.00000         1.00000         1.00000         1.00000         1.00000         1.00000         1.00000         1.00000    
1
  CONCENTRATION IN LAYER   3 AT END OF TIME STEP  50 IN STRESS PERIOD    2
  ---------------------------------------------------------------------------

                1               2               3               4               5               6               7               8               9              10
 ................................................................................................................................................................
   1      1.00000         1.00000         1.00000         1.00000         1.00000         1.00000         1.00000         1.00000         1.00000         1.00000    
   2      1.00000         1.00000         1.00000         1.00000         1.00000         1.00000         1.00000         1.00000         1.00000         1.00000    
   3      1.00000         1.00000         1.00000         1.00000         1.00000         1.00000         1.00000         1.00000         1.00000         1.00000    
   4      1.00000         1.00000         1.00000         1.00000         1.00000         1.00000         1.00000         1.00000         1.00000         1.00000    
   5      1.00000         1.00000         1.00000         1.00000         1.00000         1.00000         1.00000         1.00000         1.00000         1.00000    
   6      1.00000         1.00000         1.00000         1.00000         1.00000         1.00000         1.00000         1.00000         1.00000         1.00000    
   7      1.00000         1.00000         1.00000         1.00000         1.00000         1.00000         1.00000         1.00000         1.00000         1.00000    
   8      1.00000         1.00000         1.00000         1.00000         1.00000         1.00000         1.00000         1.00000         1.00000         1.00000    
   9      1.00000         1.00000         1.00000         1.00000         1.00000         1.00000         1.00000         1.00000         1.00000         1.00000    
  10      1.00000         1.00000         1.00000         1.00000         1.00000         1.00000         1.00000         1.00000         1.00000         1.00000    
  11      1.00000         1.00000         1.00000         1.00000         1.00000         1.00000         1.00000         1.00000         1.00000         1.00000    
  12      1.00000         1.00000         1.00000         1.00000         1.00000         1.00000         1.00000         1.00000         1.00000         1.00000    
  13      1.00000         1.00000         1.00000         1.00000         1.00000         1.00000         1.00000         1.00000         1.00000         1.00000    
  14      1.00000         1.00000         1.00000         1.00000         1.00000         1.00000         1.00000         1.00000         1.00000         1.00000    
  15      1.00000         1.00000         1.00000         1.00000         1.00000         1.00000         1.00000         1.00000         1.00000         1.00000    

 CONCENTRATION WILL BE SAVED ON UNIT 1030 AT END OF TIME STEP   50, STRESS PERIOD    2


  MASS BUDGET FOR ENTIRE MODEL AT END OF TIME STEP   50, STRESS PERIOD   2
  ---------------------------------------------------------------------------------------------------

     CUMULATIVE MASS      M       RATES FOR THIS TIME STEP      M/T          PACKAGE NAME    
     ------------------                 ------------------------                     ----------------

           IN:                                      IN:
           ---                                      ---
     STORAGE-AQUEOUS =          10.5824       STORAGE-AQUEOUS =           2.0475     MST                              
                 RIV =           0.0000                   RIV =           0.0000     SSM_RIV-1                        
                 CHD =           0.0000                   CHD =           0.0000     SSM_CHD-1                        
                 CNC =           4.4116                   CNC =           0.8525     CNC_0                            

            TOTAL IN =          14.9940              TOTAL IN =           2.9000

          OUT:                                     OUT:
          ----                                     ----
     STORAGE-AQUEOUS =           4.6433       STORAGE-AQUEOUS =           0.8966     MST                              
                 RIV =           0.0000                   RIV =           0.0000     SSM_RIV-1                        
                 CHD =           9.9506                   CHD =           1.9260     SSM_CHD-1                        
                 CNC =           0.4001                   CNC =       7.7434E-02     CNC_0                            

           TOTAL OUT =          14.9940             TOTAL OUT =           2.9000

            IN - OUT =       8.0590E-10              IN - OUT =       1.2433E-09

 PERCENT DISCREPANCY =           0.00     PERCENT DISCREPANCY =           0.00




         TIME SUMMARY AT END OF TIME STEP   50 IN STRESS PERIOD    2
                    SECONDS     MINUTES      HOURS       DAYS        YEARS
                    -----------------------------------------------------------
   TIME STEP LENGTH  7200.0      120.00      2.0000     8.33333E-02 2.28154E-04
 STRESS PERIOD TIME 3.60000E+05  6000.0      100.00      4.1667     1.14077E-02
         TOTAL TIME 4.46400E+05  7440.0      124.00      5.1667     1.41456E-02


end timestep


start timestep kper="2" kstp="51" mode="normal"

 UBDSV1 SAVING  STORAGE-AQUEOUS ON UNIT   1029 AT TIME STEP     51, STRESS PERIOD      2
 UBDSV1 SAVING     FLOW-JA-FACE ON UNIT   1029 AT TIME STEP     51, STRESS PERIOD      2
 UBDSV06 SAVING  SOURCE-SINK MIX IN MODEL GWT_RIVERBASE    PACKAGE GWT_RIVERBASE   CONNECTED TO MODEL GWT_RIVERBASE    PACKAGE SSM              ON UNIT   1029 AT TIME STEP     51, STRESS PERIOD      2
 UBDSV06 SAVING              CNC IN MODEL GWT_RIVERBASE    PACKAGE GWT_RIVERBASE   CONNECTED TO MODEL GWT_RIVERBASE    PACKAGE CNC_0            ON UNIT   1029 AT TIME STEP     51, STRESS PERIOD      2
1
  CONCENTRATION IN LAYER   1 AT END OF TIME STEP  51 IN STRESS PERIOD    2
  ---------------------------------------------------------------------------

                1               2               3               4               5               6               7               8               9              10
 ................................................................................................................................................................
   1      1.00000         1.00000         1.00000         1.00000         1.00000         1.00000         1.00000         1.00000         1.00000         1.00000    
   2     0.999989         1.00000        0.999989         1.00000         1.00000         1.00000         1.00000         1.00000         1.00000         1.00000    
   3      1.00000        0.999988         1.00000         1.00000         1.00000         1.00000         1.00000         1.00000         1.00000         1.00000    
   4      1.00000         1.00000        0.999988         1.00000         1.00000         1.00000         1.00000         1.00000         1.00000         1.00000    
   5      1.00000         1.00001         1.00000        0.999988        0.999987         1.00000         1.00000         1.00000         1.00000         1.00000    
   6      1.00002         10.0000         1.00000        0.999987         1.00000        0.999987         1.00000         1.00000         1.00000         1.00000    
   7      1.00001         10.0000         1.00000         1.00000         1.00000         1.00000        0.999986         1.00000         1.00000         1.00000    
   8      1.00000         1.00001         1.00000         1.00000         1.00000         1.00000         1.00000        0.999986        0.999985         1.00000    
   9      1.00000         1.00000         1.00000         1.00000         1.00000         1.00000         1.00000        0.999986         1.00000         1.00000    
  10      1.00000         1.00000         1.00000         1.00000         1.00000         1.00000         1.00000         1.00000         1.00000         1.00000    
  11      1.00000         1.00000         1.00000         1.00000         1.00000         1.00000         1.00000         1.00000         1.00000         1.00000    
  12      1.00000         1.00000         1.00000         1.00000         1.00000         1.00000         1.00000         1.00000         1.00000         1.00000    
  13      1.00000         1.00000         1.00000         1.00000         1.00000         1.00000         1.00000         1.00000         1.00000         1.00000    
  14      1.00000         1.00000         1.00000         1.00000         1.00000         1.00000         1.00000         1.00000         1.00000         1.00000    
  15      1.00000         1.00000         1.00000         1.00000         1.00000         1.00000         1.00000         1.00000         1.00000         1.00000    
1
  CONCENTRATION IN LAYER   2 AT END OF TIME STEP  51 IN STRESS PERIOD    2
  ---------------------------------------------------------------------------

                1               2               3               4               5               6               7               8               9              10
 ................................................................................................................................................................
   1      1.00000         1.00000         1.00000         1.00000         1.00000         1.00000         1.00000         1.00000         1.00000         1.00000    
   2      1.00000         1.00000         1.00000         1.00000         1.00000         1.00000         1.00000         1.00000         1.00000         1.00000    
   3      1.00000         1.00000         1.00000         1.00000         1.00000         1.00000         1.00000         1.00000         1.00000         1.00000    
   4      1.00000         1.00000         1.00000         1.00000         1.00000         1.00000         1.00000         1.00000         1.00000         1.00000    
   5      1.00000         1.00000         1.00000         1.00000         1.00000         1.00000         1.00000         1.00000         1.00000         1.00000    
   6      1.00000         1.00000         1.00000         1.00000         1.00000         1.00000         1.00000         1.00000         1.00000         1.00000    
   7      1.00000         1.00000         1.00000         1.00000         1.00000         1.00000         1.00000         1.00000         1.00000         1.00000    
   8      1.00000         1.00000         1.00000         1.00000         1.00000         1.00000         1.00000         1.00000         1.00000         1.00000    
   9      1.00000         1.00000         1.00000         1.00000         1.00000         1.00000         1.00000         1.00000         1.00000         1.00000    
  10      1.00000         1.00000         1.00000         1.00000         1.00000         1.00000         1.00000         1.00000         1.00000         1.00000    
  11      1.00000         1.00000         1.00000         1.00000         1.00000         1.00000         1.00000         1.00000         1.00000         1.00000    
  12      1.00000         1.00000         1.00000         1.00000         1.00000         1.00000         1.00000         1.00000         1.00000         1.00000    
  13      1.00000         1.00000         1.00000         1.00000         1.00000         1.00000         1.00000         1.00000         1.00000         1.00000    
  14      1.00000         1.00000         1.00000         1.00000         1.00000         1.00000         1.00000         1.00000         1.00000         1.00000    
  15      1.00000         1.00000         1.00000         1.00000         1.00000         1.00000         1.00000         1.00000         1.00000         1.00000    
1
  CONCENTRATION IN LAYER   3 AT END OF TIME STEP  51 IN STRESS PERIOD    2
  ---------------------------------------------------------------------------

                1               2               3               4               5               6               7               8               9              10
 ................................................................................................................................................................
   1      1.00000         1.00000         1.00000         1.00000         1.00000         1.00000         1.00000         1.00000         1.00000         1.00000    
   2      1.00000         1.00000         1.00000         1.00000         1.00000         1.00000         1.00000         1.00000         1.00000         1.00000    
   3      1.00000         1.00000         1.00000         1.00000         1.00000         1.00000         1.00000         1.00000         1.00000         1.00000    
   4      1.00000         1.00000         1.00000         1.00000         1.00000         1.00000         1.00000         1.00000         1.00000         1.00000    
   5      1.00000         1.00000         1.00000         1.00000         1.00000         1.00000         1.00000         1.00000         1.00000         1.00000    
   6      1.00000         1.00000         1.00000         1.00000         1.00000         1.00000         1.00000         1.00000         1.00000         1.00000    
   7      1.00000         1.00000         1.00000         1.00000         1.00000         1.00000         1.00000         1.00000         1.00000         1.00000    
   8      1.00000         1.00000         1.00000         1.00000         1.00000         1.00000         1.00000         1.00000         1.00000         1.00000    
   9      1.00000         1.00000         1.00000         1.00000         1.00000         1.00000         1.00000         1.00000         1.00000         1.00000    
  10      1.00000         1.00000         1.00000         1.00000         1.00000         1.00000         1.00000         1.00000         1.00000         1.00000    
  11      1.00000         1.00000         1.00000         1.00000         1.00000         1.00000         1.00000         1.00000         1.00000         1.00000    
  12      1.00000         1.00000         1.00000         1.00000         1.00000         1.00000         1.00000         1.00000         1.00000         1.00000    
  13      1.00000         1.00000         1.00000         1.00000         1.00000         1.00000         1.00000         1.00000         1.00000         1.00000    
  14      1.00000         1.00000         1.00000         1.00000         1.00000         1.00000         1.00000         1.00000         1.00000         1.00000    
  15      1.00000         1.00000         1.00000         1.00000         1.00000         1.00000         1.00000         1.00000         1.00000         1.00000    

 CONCENTRATION WILL BE SAVED ON UNIT 1030 AT END OF TIME STEP   51, STRESS PERIOD    2


  MASS BUDGET FOR ENTIRE MODEL AT END OF TIME STEP   51, STRESS PERIOD   2
  ---------------------------------------------------------------------------------------------------

     CUMULATIVE MASS      M       RATES FOR THIS TIME STEP      M/T          PACKAGE NAME    
     ------------------                 ------------------------                     ----------------

           IN:                                      IN:
           ---                                      ---
     STORAGE-AQUEOUS =          10.7530       STORAGE-AQUEOUS =           2.0475     MST                              
                 RIV =           0.0000                   RIV =           0.0000     SSM_RIV-1                        
                 CHD =           0.0000                   CHD =           0.0000     SSM_CHD-1                        
                 CNC =           4.4826                   CNC =           0.8525     CNC_0                            

            TOTAL IN =          15.2357              TOTAL IN =           2.9000

          OUT:                                     OUT:
          ----                                     ----
     STORAGE-AQUEOUS =           4.7180       STORAGE-AQUEOUS =           0.8966     MST                              
                 RIV =           0.0000                   RIV =           0.0000     SSM_RIV-1                        
                 CHD =          10.1111                   CHD =           1.9260     SSM_CHD-1                        
                 CNC =           0.4065                   CNC =       7.7434E-02     CNC_0                            

           TOTAL OUT =          15.2357             TOTAL OUT =           2.9000

            IN - OUT =       7.3497E-10              IN - OUT =      -8.5110E-10

 PERCENT DISCREPANCY =           0.00     PERCENT DISCREPANCY =          -0.00




         TIME SUMMARY AT END OF TIME STEP   51 IN STRESS PERIOD    2
                    SECONDS     MINUTES      HOURS       DAYS        YEARS
                    -----------------------------------------------------------
   TIME STEP LENGTH  7200.0      120.00      2.0000     8.33333E-02 2.28154E-04
 STRESS PERIOD TIME 3.67200E+05  6120.0      102.00      4.2500     1.16359E-02
         TOTAL TIME 4.53600E+05  7560.0      126.00      5.2500     1.43737E-02


end timestep


start timestep kper="2" kstp="52" mode="normal"

 UBDSV1 SAVING  STORAGE-AQUEOUS ON UNIT   1029 AT TIME STEP     52, STRESS PERIOD      2
 UBDSV1 SAVING     FLOW-JA-FACE ON UNIT   1029 AT TIME STEP     52, STRESS PERIOD      2
 UBDSV06 SAVING  SOURCE-SINK MIX IN MODEL GWT_RIVERBASE    PACKAGE GWT_RIVERBASE   CONNECTED TO MODEL GWT_RIVERBASE    PACKAGE SSM              ON UNIT   1029 AT TIME STEP     52, STRESS PERIOD      2
 UBDSV06 SAVING              CNC IN MODEL GWT_RIVERBASE    PACKAGE GWT_RIVERBASE   CONNECTED TO MODEL GWT_RIVERBASE    PACKAGE CNC_0            ON UNIT   1029 AT TIME STEP     52, STRESS PERIOD      2
1
  CONCENTRATION IN LAYER   1 AT END OF TIME STEP  52 IN STRESS PERIOD    2
  ---------------------------------------------------------------------------

                1               2               3               4               5               6               7               8               9              10
 ................................................................................................................................................................
   1      1.00000         1.00000         1.00000         1.00000         1.00000         1.00000         1.00000         1.00000         1.00000         1.00000    
   2     0.999989         1.00000        0.999989         1.00000         1.00000         1.00000         1.00000         1.00000         1.00000         1.00000    
   3      1.00000        0.999988         1.00000         1.00000         1.00000         1.00000         1.00000         1.00000         1.00000         1.00000    
   4      1.00000         1.00000        0.999988         1.00000         1.00000         1.00000         1.00000         1.00000         1.00000         1.00000    
   5      1.00000         1.00001         1.00000        0.999988        0.999987         1.00000         1.00000         1.00000         1.00000         1.00000    
   6      1.00002         10.0000         1.00000        0.999987         1.00000        0.999987         1.00000         1.00000         1.00000         1.00000    
   7      1.00001         10.0000         1.00000         1.00000         1.00000         1.00000        0.999986         1.00000         1.00000         1.00000    
   8      1.00000         1.00001         1.00000         1.00000         1.00000         1.00000         1.00000        0.999986        0.999985         1.00000    
   9      1.00000         1.00000         1.00000         1.00000         1.00000         1.00000         1.00000        0.999986         1.00000         1.00000    
  10      1.00000         1.00000         1.00000         1.00000         1.00000         1.00000         1.00000         1.00000         1.00000         1.00000    
  11      1.00000         1.00000         1.00000         1.00000         1.00000         1.00000         1.00000         1.00000         1.00000         1.00000    
  12      1.00000         1.00000         1.00000         1.00000         1.00000         1.00000         1.00000         1.00000         1.00000         1.00000    
  13      1.00000         1.00000         1.00000         1.00000         1.00000         1.00000         1.00000         1.00000         1.00000         1.00000    
  14      1.00000         1.00000         1.00000         1.00000         1.00000         1.00000         1.00000         1.00000         1.00000         1.00000    
  15      1.00000         1.00000         1.00000         1.00000         1.00000         1.00000         1.00000         1.00000         1.00000         1.00000    
1
  CONCENTRATION IN LAYER   2 AT END OF TIME STEP  52 IN STRESS PERIOD    2
  ---------------------------------------------------------------------------

                1               2               3               4               5               6               7               8               9              10
 ................................................................................................................................................................
   1      1.00000         1.00000         1.00000         1.00000         1.00000         1.00000         1.00000         1.00000         1.00000         1.00000    
   2      1.00000         1.00000         1.00000         1.00000         1.00000         1.00000         1.00000         1.00000         1.00000         1.00000    
   3      1.00000         1.00000         1.00000         1.00000         1.00000         1.00000         1.00000         1.00000         1.00000         1.00000    
   4      1.00000         1.00000         1.00000         1.00000         1.00000         1.00000         1.00000         1.00000         1.00000         1.00000    
   5      1.00000         1.00000         1.00000         1.00000         1.00000         1.00000         1.00000         1.00000         1.00000         1.00000    
   6      1.00000         1.00000         1.00000         1.00000         1.00000         1.00000         1.00000         1.00000         1.00000         1.00000    
   7      1.00000         1.00000         1.00000         1.00000         1.00000         1.00000         1.00000         1.00000         1.00000         1.00000    
   8      1.00000         1.00000         1.00000         1.00000         1.00000         1.00000         1.00000         1.00000         1.00000         1.00000    
   9      1.00000         1.00000         1.00000         1.00000         1.00000         1.00000         1.00000         1.00000         1.00000         1.00000    
  10      1.00000         1.00000         1.00000         1.00000         1.00000         1.00000         1.00000         1.00000         1.00000         1.00000    
  11      1.00000         1.00000         1.00000         1.00000         1.00000         1.00000         1.00000         1.00000         1.00000         1.00000    
  12      1.00000         1.00000         1.00000         1.00000         1.00000         1.00000         1.00000         1.00000         1.00000         1.00000    
  13      1.00000         1.00000         1.00000         1.00000         1.00000         1.00000         1.00000         1.00000         1.00000         1.00000    
  14      1.00000         1.00000         1.00000         1.00000         1.00000         1.00000         1.00000         1.00000         1.00000         1.00000    
  15      1.00000         1.00000         1.00000         1.00000         1.00000         1.00000         1.00000         1.00000         1.00000         1.00000    
1
  CONCENTRATION IN LAYER   3 AT END OF TIME STEP  52 IN STRESS PERIOD    2
  ---------------------------------------------------------------------------

                1               2               3               4               5               6               7               8               9              10
 ................................................................................................................................................................
   1      1.00000         1.00000         1.00000         1.00000         1.00000         1.00000         1.00000         1.00000         1.00000         1.00000    
   2      1.00000         1.00000         1.00000         1.00000         1.00000         1.00000         1.00000         1.00000         1.00000         1.00000    
   3      1.00000         1.00000         1.00000         1.00000         1.00000         1.00000         1.00000         1.00000         1.00000         1.00000    
   4      1.00000         1.00000         1.00000         1.00000         1.00000         1.00000         1.00000         1.00000         1.00000         1.00000    
   5      1.00000         1.00000         1.00000         1.00000         1.00000         1.00000         1.00000         1.00000         1.00000         1.00000    
   6      1.00000         1.00000         1.00000         1.00000         1.00000         1.00000         1.00000         1.00000         1.00000         1.00000    
   7      1.00000         1.00000         1.00000         1.00000         1.00000         1.00000         1.00000         1.00000         1.00000         1.00000    
   8      1.00000         1.00000         1.00000         1.00000         1.00000         1.00000         1.00000         1.00000         1.00000         1.00000    
   9      1.00000         1.00000         1.00000         1.00000         1.00000         1.00000         1.00000         1.00000         1.00000         1.00000    
  10      1.00000         1.00000         1.00000         1.00000         1.00000         1.00000         1.00000         1.00000         1.00000         1.00000    
  11      1.00000         1.00000         1.00000         1.00000         1.00000         1.00000         1.00000         1.00000         1.00000         1.00000    
  12      1.00000         1.00000         1.00000         1.00000         1.00000         1.00000         1.00000         1.00000         1.00000         1.00000    
  13      1.00000         1.00000         1.00000         1.00000         1.00000         1.00000         1.00000         1.00000         1.00000         1.00000    
  14      1.00000         1.00000         1.00000         1.00000         1.00000         1.00000         1.00000         1.00000         1.00000         1.00000    
  15      1.00000         1.00000         1.00000         1.00000         1.00000         1.00000         1.00000         1.00000         1.00000         1.00000    

 CONCENTRATION WILL BE SAVED ON UNIT 1030 AT END OF TIME STEP   52, STRESS PERIOD    2


  MASS BUDGET FOR ENTIRE MODEL AT END OF TIME STEP   52, STRESS PERIOD   2
  ---------------------------------------------------------------------------------------------------

     CUMULATIVE MASS      M       RATES FOR THIS TIME STEP      M/T          PACKAGE NAME    
     ------------------                 ------------------------                     ----------------

           IN:                                      IN:
           ---                                      ---
     STORAGE-AQUEOUS =          10.9237       STORAGE-AQUEOUS =           2.0475     MST                              
                 RIV =           0.0000                   RIV =           0.0000     SSM_RIV-1                        
                 CHD =           0.0000                   CHD =           0.0000     SSM_CHD-1                        
                 CNC =           4.5537                   CNC =           0.8525     CNC_0                            

            TOTAL IN =          15.4773              TOTAL IN =           2.9000

          OUT:                                     OUT:
          ----                                     ----
     STORAGE-AQUEOUS =           4.7927       STORAGE-AQUEOUS =           0.8966     MST                              
                 RIV =           0.0000                   RIV =           0.0000     SSM_RIV-1                        
                 CHD =          10.2716                   CHD =           1.9260     SSM_CHD-1                        
                 CNC =           0.4130                   CNC =       7.7434E-02     CNC_0                            

           TOTAL OUT =          15.4773             TOTAL OUT =           2.9000

            IN - OUT =       5.6209E-10              IN - OUT =      -2.0747E-09

 PERCENT DISCREPANCY =           0.00     PERCENT DISCREPANCY =          -0.00




         TIME SUMMARY AT END OF TIME STEP   52 IN STRESS PERIOD    2
                    SECONDS     MINUTES      HOURS       DAYS        YEARS
                    -----------------------------------------------------------
   TIME STEP LENGTH  7200.0      120.00      2.0000     8.33333E-02 2.28154E-04
 STRESS PERIOD TIME 3.74400E+05  6240.0      104.00      4.3333     1.18640E-02
         TOTAL TIME 4.60800E+05  7680.0      128.00      5.3333     1.46019E-02


end timestep


start timestep kper="2" kstp="53" mode="normal"

 UBDSV1 SAVING  STORAGE-AQUEOUS ON UNIT   1029 AT TIME STEP     53, STRESS PERIOD      2
 UBDSV1 SAVING     FLOW-JA-FACE ON UNIT   1029 AT TIME STEP     53, STRESS PERIOD      2
 UBDSV06 SAVING  SOURCE-SINK MIX IN MODEL GWT_RIVERBASE    PACKAGE GWT_RIVERBASE   CONNECTED TO MODEL GWT_RIVERBASE    PACKAGE SSM              ON UNIT   1029 AT TIME STEP     53, STRESS PERIOD      2
 UBDSV06 SAVING              CNC IN MODEL GWT_RIVERBASE    PACKAGE GWT_RIVERBASE   CONNECTED TO MODEL GWT_RIVERBASE    PACKAGE CNC_0            ON UNIT   1029 AT TIME STEP     53, STRESS PERIOD      2
1
  CONCENTRATION IN LAYER   1 AT END OF TIME STEP  53 IN STRESS PERIOD    2
  ---------------------------------------------------------------------------

                1               2               3               4               5               6               7               8               9              10
 ................................................................................................................................................................
   1      1.00000         1.00000         1.00000         1.00000         1.00000         1.00000         1.00000         1.00000         1.00000         1.00000    
   2     0.999989         1.00000        0.999988         1.00000         1.00000         1.00000         1.00000         1.00000         1.00000         1.00000    
   3      1.00000        0.999988         1.00000         1.00000         1.00000         1.00000         1.00000         1.00000         1.00000         1.00000    
   4      1.00000         1.00000        0.999988         1.00000         1.00000         1.00000         1.00000         1.00000         1.00000         1.00000    
   5      1.00000         1.00001         1.00000        0.999987        0.999987         1.00000         1.00000         1.00000         1.00000         1.00000    
   6      1.00002         10.0000         1.00000        0.999987         1.00000        0.999986         1.00000         1.00000         1.00000         1.00000    
   7      1.00001         10.0000         1.00000         1.00000         1.00000         1.00000        0.999986         1.00000         1.00000         1.00000    
   8      1.00000         1.00001         1.00000         1.00000         1.00000         1.00000         1.00000        0.999986        0.999985         1.00000    
   9      1.00000         1.00000         1.00000         1.00000         1.00000         1.00000         1.00000        0.999985         1.00000         1.00000    
  10      1.00000         1.00000         1.00000         1.00000         1.00000         1.00000         1.00000         1.00000         1.00000         1.00000    
  11      1.00000         1.00000         1.00000         1.00000         1.00000         1.00000         1.00000         1.00000         1.00000         1.00000    
  12      1.00000         1.00000         1.00000         1.00000         1.00000         1.00000         1.00000         1.00000         1.00000         1.00000    
  13      1.00000         1.00000         1.00000         1.00000         1.00000         1.00000         1.00000         1.00000         1.00000         1.00000    
  14      1.00000         1.00000         1.00000         1.00000         1.00000         1.00000         1.00000         1.00000         1.00000         1.00000    
  15      1.00000         1.00000         1.00000         1.00000         1.00000         1.00000         1.00000         1.00000         1.00000         1.00000    
1
  CONCENTRATION IN LAYER   2 AT END OF TIME STEP  53 IN STRESS PERIOD    2
  ---------------------------------------------------------------------------

                1               2               3               4               5               6               7               8               9              10
 ................................................................................................................................................................
   1      1.00000         1.00000         1.00000         1.00000         1.00000         1.00000         1.00000         1.00000         1.00000         1.00000    
   2      1.00000         1.00000         1.00000         1.00000         1.00000         1.00000         1.00000         1.00000         1.00000         1.00000    
   3      1.00000         1.00000         1.00000         1.00000         1.00000         1.00000         1.00000         1.00000         1.00000         1.00000    
   4      1.00000         1.00000         1.00000         1.00000         1.00000         1.00000         1.00000         1.00000         1.00000         1.00000    
   5      1.00000         1.00000         1.00000         1.00000         1.00000         1.00000         1.00000         1.00000         1.00000         1.00000    
   6      1.00000         1.00000         1.00000         1.00000         1.00000         1.00000         1.00000         1.00000         1.00000         1.00000    
   7      1.00000         1.00000         1.00000         1.00000         1.00000         1.00000         1.00000         1.00000         1.00000         1.00000    
   8      1.00000         1.00000         1.00000         1.00000         1.00000         1.00000         1.00000         1.00000         1.00000         1.00000    
   9      1.00000         1.00000         1.00000         1.00000         1.00000         1.00000         1.00000         1.00000         1.00000         1.00000    
  10      1.00000         1.00000         1.00000         1.00000         1.00000         1.00000         1.00000         1.00000         1.00000         1.00000    
  11      1.00000         1.00000         1.00000         1.00000         1.00000         1.00000         1.00000         1.00000         1.00000         1.00000    
  12      1.00000         1.00000         1.00000         1.00000         1.00000         1.00000         1.00000         1.00000         1.00000         1.00000    
  13      1.00000         1.00000         1.00000         1.00000         1.00000         1.00000         1.00000         1.00000         1.00000         1.00000    
  14      1.00000         1.00000         1.00000         1.00000         1.00000         1.00000         1.00000         1.00000         1.00000         1.00000    
  15      1.00000         1.00000         1.00000         1.00000         1.00000         1.00000         1.00000         1.00000         1.00000         1.00000    
1
  CONCENTRATION IN LAYER   3 AT END OF TIME STEP  53 IN STRESS PERIOD    2
  ---------------------------------------------------------------------------

                1               2               3               4               5               6               7               8               9              10
 ................................................................................................................................................................
   1      1.00000         1.00000         1.00000         1.00000         1.00000         1.00000         1.00000         1.00000         1.00000         1.00000    
   2      1.00000         1.00000         1.00000         1.00000         1.00000         1.00000         1.00000         1.00000         1.00000         1.00000    
   3      1.00000         1.00000         1.00000         1.00000         1.00000         1.00000         1.00000         1.00000         1.00000         1.00000    
   4      1.00000         1.00000         1.00000         1.00000         1.00000         1.00000         1.00000         1.00000         1.00000         1.00000    
   5      1.00000         1.00000         1.00000         1.00000         1.00000         1.00000         1.00000         1.00000         1.00000         1.00000    
   6      1.00000         1.00000         1.00000         1.00000         1.00000         1.00000         1.00000         1.00000         1.00000         1.00000    
   7      1.00000         1.00000         1.00000         1.00000         1.00000         1.00000         1.00000         1.00000         1.00000         1.00000    
   8      1.00000         1.00000         1.00000         1.00000         1.00000         1.00000         1.00000         1.00000         1.00000         1.00000    
   9      1.00000         1.00000         1.00000         1.00000         1.00000         1.00000         1.00000         1.00000         1.00000         1.00000    
  10      1.00000         1.00000         1.00000         1.00000         1.00000         1.00000         1.00000         1.00000         1.00000         1.00000    
  11      1.00000         1.00000         1.00000         1.00000         1.00000         1.00000         1.00000         1.00000         1.00000         1.00000    
  12      1.00000         1.00000         1.00000         1.00000         1.00000         1.00000         1.00000         1.00000         1.00000         1.00000    
  13      1.00000         1.00000         1.00000         1.00000         1.00000         1.00000         1.00000         1.00000         1.00000         1.00000    
  14      1.00000         1.00000         1.00000         1.00000         1.00000         1.00000         1.00000         1.00000         1.00000         1.00000    
  15      1.00000         1.00000         1.00000         1.00000         1.00000         1.00000         1.00000         1.00000         1.00000         1.00000    

 CONCENTRATION WILL BE SAVED ON UNIT 1030 AT END OF TIME STEP   53, STRESS PERIOD    2


  MASS BUDGET FOR ENTIRE MODEL AT END OF TIME STEP   53, STRESS PERIOD   2
  ---------------------------------------------------------------------------------------------------

     CUMULATIVE MASS      M       RATES FOR THIS TIME STEP      M/T          PACKAGE NAME    
     ------------------                 ------------------------                     ----------------

           IN:                                      IN:
           ---                                      ---
     STORAGE-AQUEOUS =          11.0943       STORAGE-AQUEOUS =           2.0475     MST                              
                 RIV =           0.0000                   RIV =           0.0000     SSM_RIV-1                        
                 CHD =           0.0000                   CHD =           0.0000     SSM_CHD-1                        
                 CNC =           4.6247                   CNC =           0.8525     CNC_0                            

            TOTAL IN =          15.7190              TOTAL IN =           2.9000

          OUT:                                     OUT:
          ----                                     ----
     STORAGE-AQUEOUS =           4.8674       STORAGE-AQUEOUS =           0.8966     MST                              
                 RIV =           0.0000                   RIV =           0.0000     SSM_RIV-1                        
                 CHD =          10.4321                   CHD =           1.9260     SSM_CHD-1                        
                 CNC =           0.4195                   CNC =       7.7434E-02     CNC_0                            

           TOTAL OUT =          15.7190             TOTAL OUT =           2.9000

            IN - OUT =       5.1043E-10              IN - OUT =      -6.1990E-10

 PERCENT DISCREPANCY =           0.00     PERCENT DISCREPANCY =          -0.00




         TIME SUMMARY AT END OF TIME STEP   53 IN STRESS PERIOD    2
                    SECONDS     MINUTES      HOURS       DAYS        YEARS
                    -----------------------------------------------------------
   TIME STEP LENGTH  7200.0      120.00      2.0000     8.33333E-02 2.28154E-04
 STRESS PERIOD TIME 3.81600E+05  6360.0      106.00      4.4167     1.20922E-02
         TOTAL TIME 4.68000E+05  7800.0      130.00      5.4167     1.48300E-02


end timestep


start timestep kper="2" kstp="54" mode="normal"

 UBDSV1 SAVING  STORAGE-AQUEOUS ON UNIT   1029 AT TIME STEP     54, STRESS PERIOD      2
 UBDSV1 SAVING     FLOW-JA-FACE ON UNIT   1029 AT TIME STEP     54, STRESS PERIOD      2
 UBDSV06 SAVING  SOURCE-SINK MIX IN MODEL GWT_RIVERBASE    PACKAGE GWT_RIVERBASE   CONNECTED TO MODEL GWT_RIVERBASE    PACKAGE SSM              ON UNIT   1029 AT TIME STEP     54, STRESS PERIOD      2
 UBDSV06 SAVING              CNC IN MODEL GWT_RIVERBASE    PACKAGE GWT_RIVERBASE   CONNECTED TO MODEL GWT_RIVERBASE    PACKAGE CNC_0            ON UNIT   1029 AT TIME STEP     54, STRESS PERIOD      2
1
  CONCENTRATION IN LAYER   1 AT END OF TIME STEP  54 IN STRESS PERIOD    2
  ---------------------------------------------------------------------------

                1               2               3               4               5               6               7               8               9              10
 ................................................................................................................................................................
   1      1.00000         1.00000         1.00000         1.00000         1.00000         1.00000         1.00000         1.00000         1.00000         1.00000    
   2     0.999988         1.00000        0.999988         1.00000         1.00000         1.00000         1.00000         1.00000         1.00000         1.00000    
   3      1.00000        0.999988         1.00000         1.00000         1.00000         1.00000         1.00000         1.00000         1.00000         1.00000    
   4      1.00000         1.00000        0.999988         1.00000         1.00000         1.00000         1.00000         1.00000         1.00000         1.00000    
   5      1.00000         1.00001         1.00000        0.999987        0.999987         1.00000         1.00000         1.00000         1.00000         1.00000    
   6      1.00002         10.0000         1.00000        0.999987         1.00000        0.999986         1.00000         1.00000         1.00000         1.00000    
   7      1.00001         10.0000         1.00000         1.00000         1.00000         1.00000        0.999986         1.00000         1.00000         1.00000    
   8      1.00000         1.00001         1.00000         1.00000         1.00000         1.00000         1.00000        0.999985        0.999985         1.00000    
   9      1.00000         1.00000         1.00000         1.00000         1.00000         1.00000         1.00000        0.999985         1.00000         1.00000    
  10      1.00000         1.00000         1.00000         1.00000         1.00000         1.00000         1.00000         1.00000         1.00000         1.00000    
  11      1.00000         1.00000         1.00000         1.00000         1.00000         1.00000         1.00000         1.00000         1.00000         1.00000    
  12      1.00000         1.00000         1.00000         1.00000         1.00000         1.00000         1.00000         1.00000         1.00000         1.00000    
  13      1.00000         1.00000         1.00000         1.00000         1.00000         1.00000         1.00000         1.00000         1.00000         1.00000    
  14      1.00000         1.00000         1.00000         1.00000         1.00000         1.00000         1.00000         1.00000         1.00000         1.00000    
  15      1.00000         1.00000         1.00000         1.00000         1.00000         1.00000         1.00000         1.00000         1.00000         1.00000    
1
  CONCENTRATION IN LAYER   2 AT END OF TIME STEP  54 IN STRESS PERIOD    2
  ---------------------------------------------------------------------------

                1               2               3               4               5               6               7               8               9              10
 ................................................................................................................................................................
   1      1.00000         1.00000         1.00000         1.00000         1.00000         1.00000         1.00000         1.00000         1.00000         1.00000    
   2      1.00000         1.00000         1.00000         1.00000         1.00000         1.00000         1.00000         1.00000         1.00000         1.00000    
   3      1.00000         1.00000         1.00000         1.00000         1.00000         1.00000         1.00000         1.00000         1.00000         1.00000    
   4      1.00000         1.00000         1.00000         1.00000         1.00000         1.00000         1.00000         1.00000         1.00000         1.00000    
   5      1.00000         1.00000         1.00000         1.00000         1.00000         1.00000         1.00000         1.00000         1.00000         1.00000    
   6      1.00000         1.00000         1.00000         1.00000         1.00000         1.00000         1.00000         1.00000         1.00000         1.00000    
   7      1.00000         1.00000         1.00000         1.00000         1.00000         1.00000         1.00000         1.00000         1.00000         1.00000    
   8      1.00000         1.00000         1.00000         1.00000         1.00000         1.00000         1.00000         1.00000         1.00000         1.00000    
   9      1.00000         1.00000         1.00000         1.00000         1.00000         1.00000         1.00000         1.00000         1.00000         1.00000    
  10      1.00000         1.00000         1.00000         1.00000         1.00000         1.00000         1.00000         1.00000         1.00000         1.00000    
  11      1.00000         1.00000         1.00000         1.00000         1.00000         1.00000         1.00000         1.00000         1.00000         1.00000    
  12      1.00000         1.00000         1.00000         1.00000         1.00000         1.00000         1.00000         1.00000         1.00000         1.00000    
  13      1.00000         1.00000         1.00000         1.00000         1.00000         1.00000         1.00000         1.00000         1.00000         1.00000    
  14      1.00000         1.00000         1.00000         1.00000         1.00000         1.00000         1.00000         1.00000         1.00000         1.00000    
  15      1.00000         1.00000         1.00000         1.00000         1.00000         1.00000         1.00000         1.00000         1.00000         1.00000    
1
  CONCENTRATION IN LAYER   3 AT END OF TIME STEP  54 IN STRESS PERIOD    2
  ---------------------------------------------------------------------------

                1               2               3               4               5               6               7               8               9              10
 ................................................................................................................................................................
   1      1.00000         1.00000         1.00000         1.00000         1.00000         1.00000         1.00000         1.00000         1.00000         1.00000    
   2      1.00000         1.00000         1.00000         1.00000         1.00000         1.00000         1.00000         1.00000         1.00000         1.00000    
   3      1.00000         1.00000         1.00000         1.00000         1.00000         1.00000         1.00000         1.00000         1.00000         1.00000    
   4      1.00000         1.00000         1.00000         1.00000         1.00000         1.00000         1.00000         1.00000         1.00000         1.00000    
   5      1.00000         1.00000         1.00000         1.00000         1.00000         1.00000         1.00000         1.00000         1.00000         1.00000    
   6      1.00000         1.00000         1.00000         1.00000         1.00000         1.00000         1.00000         1.00000         1.00000         1.00000    
   7      1.00000         1.00000         1.00000         1.00000         1.00000         1.00000         1.00000         1.00000         1.00000         1.00000    
   8      1.00000         1.00000         1.00000         1.00000         1.00000         1.00000         1.00000         1.00000         1.00000         1.00000    
   9      1.00000         1.00000         1.00000         1.00000         1.00000         1.00000         1.00000         1.00000         1.00000         1.00000    
  10      1.00000         1.00000         1.00000         1.00000         1.00000         1.00000         1.00000         1.00000         1.00000         1.00000    
  11      1.00000         1.00000         1.00000         1.00000         1.00000         1.00000         1.00000         1.00000         1.00000         1.00000    
  12      1.00000         1.00000         1.00000         1.00000         1.00000         1.00000         1.00000         1.00000         1.00000         1.00000    
  13      1.00000         1.00000         1.00000         1.00000         1.00000         1.00000         1.00000         1.00000         1.00000         1.00000    
  14      1.00000         1.00000         1.00000         1.00000         1.00000         1.00000         1.00000         1.00000         1.00000         1.00000    
  15      1.00000         1.00000         1.00000         1.00000         1.00000         1.00000         1.00000         1.00000         1.00000         1.00000    

 CONCENTRATION WILL BE SAVED ON UNIT 1030 AT END OF TIME STEP   54, STRESS PERIOD    2


  MASS BUDGET FOR ENTIRE MODEL AT END OF TIME STEP   54, STRESS PERIOD   2
  ---------------------------------------------------------------------------------------------------

     CUMULATIVE MASS      M       RATES FOR THIS TIME STEP      M/T          PACKAGE NAME    
     ------------------                 ------------------------                     ----------------

           IN:                                      IN:
           ---                                      ---
     STORAGE-AQUEOUS =          11.2649       STORAGE-AQUEOUS =           2.0475     MST                              
                 RIV =           0.0000                   RIV =           0.0000     SSM_RIV-1                        
                 CHD =           0.0000                   CHD =           0.0000     SSM_CHD-1                        
                 CNC =           4.6958                   CNC =           0.8525     CNC_0                            

            TOTAL IN =          15.9607              TOTAL IN =           2.9000

          OUT:                                     OUT:
          ----                                     ----
     STORAGE-AQUEOUS =           4.9421       STORAGE-AQUEOUS =           0.8966     MST                              
                 RIV =           0.0000                   RIV =           0.0000     SSM_RIV-1                        
                 CHD =          10.5926                   CHD =           1.9260     SSM_CHD-1                        
                 CNC =           0.4259                   CNC =       7.7434E-02     CNC_0                            

           TOTAL OUT =          15.9607             TOTAL OUT =           2.9000

            IN - OUT =       4.7141E-10              IN - OUT =      -4.6818E-10

 PERCENT DISCREPANCY =           0.00     PERCENT DISCREPANCY =          -0.00




         TIME SUMMARY AT END OF TIME STEP   54 IN STRESS PERIOD    2
                    SECONDS     MINUTES      HOURS       DAYS        YEARS
                    -----------------------------------------------------------
   TIME STEP LENGTH  7200.0      120.00      2.0000     8.33333E-02 2.28154E-04
 STRESS PERIOD TIME 3.88800E+05  6480.0      108.00      4.5000     1.23203E-02
         TOTAL TIME 4.75200E+05  7920.0      132.00      5.5000     1.50582E-02


end timestep


start timestep kper="2" kstp="55" mode="normal"

 UBDSV1 SAVING  STORAGE-AQUEOUS ON UNIT   1029 AT TIME STEP     55, STRESS PERIOD      2
 UBDSV1 SAVING     FLOW-JA-FACE ON UNIT   1029 AT TIME STEP     55, STRESS PERIOD      2
 UBDSV06 SAVING  SOURCE-SINK MIX IN MODEL GWT_RIVERBASE    PACKAGE GWT_RIVERBASE   CONNECTED TO MODEL GWT_RIVERBASE    PACKAGE SSM              ON UNIT   1029 AT TIME STEP     55, STRESS PERIOD      2
 UBDSV06 SAVING              CNC IN MODEL GWT_RIVERBASE    PACKAGE GWT_RIVERBASE   CONNECTED TO MODEL GWT_RIVERBASE    PACKAGE CNC_0            ON UNIT   1029 AT TIME STEP     55, STRESS PERIOD      2
1
  CONCENTRATION IN LAYER   1 AT END OF TIME STEP  55 IN STRESS PERIOD    2
  ---------------------------------------------------------------------------

                1               2               3               4               5               6               7               8               9              10
 ................................................................................................................................................................
   1      1.00000         1.00000         1.00000         1.00000         1.00000         1.00000         1.00000         1.00000         1.00000         1.00000    
   2     0.999988         1.00000        0.999988         1.00000         1.00000         1.00000         1.00000         1.00000         1.00000         1.00000    
   3      1.00000        0.999988         1.00000         1.00000         1.00000         1.00000         1.00000         1.00000         1.00000         1.00000    
   4      1.00000         1.00000        0.999987         1.00000         1.00000         1.00000         1.00000         1.00000         1.00000         1.00000    
   5      1.00000         1.00001         1.00000        0.999987        0.999986         1.00000         1.00000         1.00000         1.00000         1.00000    
   6      1.00002         10.0000         1.00000        0.999987         1.00000        0.999986         1.00000         1.00000         1.00000         1.00000    
   7      1.00001         10.0000         1.00000         1.00000         1.00000         1.00000        0.999986         1.00000         1.00000         1.00000    
   8      1.00000         1.00001         1.00000         1.00000         1.00000         1.00000         1.00000        0.999985        0.999985         1.00000    
   9      1.00000         1.00000         1.00000         1.00000         1.00000         1.00000         1.00000        0.999985         1.00000         1.00000    
  10      1.00000         1.00000         1.00000         1.00000         1.00000         1.00000         1.00000         1.00000         1.00000         1.00000    
  11      1.00000         1.00000         1.00000         1.00000         1.00000         1.00000         1.00000         1.00000         1.00000         1.00000    
  12      1.00000         1.00000         1.00000         1.00000         1.00000         1.00000         1.00000         1.00000         1.00000         1.00000    
  13      1.00000         1.00000         1.00000         1.00000         1.00000         1.00000         1.00000         1.00000         1.00000         1.00000    
  14      1.00000         1.00000         1.00000         1.00000         1.00000         1.00000         1.00000         1.00000         1.00000         1.00000    
  15      1.00000         1.00000         1.00000         1.00000         1.00000         1.00000         1.00000         1.00000         1.00000         1.00000    
1
  CONCENTRATION IN LAYER   2 AT END OF TIME STEP  55 IN STRESS PERIOD    2
  ---------------------------------------------------------------------------

                1               2               3               4               5               6               7               8               9              10
 ................................................................................................................................................................
   1      1.00000         1.00000         1.00000         1.00000         1.00000         1.00000         1.00000         1.00000         1.00000         1.00000    
   2      1.00000         1.00000         1.00000         1.00000         1.00000         1.00000         1.00000         1.00000         1.00000         1.00000    
   3      1.00000         1.00000         1.00000         1.00000         1.00000         1.00000         1.00000         1.00000         1.00000         1.00000    
   4      1.00000         1.00000         1.00000         1.00000         1.00000         1.00000         1.00000         1.00000         1.00000         1.00000    
   5      1.00000         1.00000         1.00000         1.00000         1.00000         1.00000         1.00000         1.00000         1.00000         1.00000    
   6      1.00000         1.00001         1.00000         1.00000         1.00000         1.00000         1.00000         1.00000         1.00000         1.00000    
   7      1.00000         1.00000         1.00000         1.00000         1.00000         1.00000         1.00000         1.00000         1.00000         1.00000    
   8      1.00000         1.00000         1.00000         1.00000         1.00000         1.00000         1.00000         1.00000         1.00000         1.00000    
   9      1.00000         1.00000         1.00000         1.00000         1.00000         1.00000         1.00000         1.00000         1.00000         1.00000    
  10      1.00000         1.00000         1.00000         1.00000         1.00000         1.00000         1.00000         1.00000         1.00000         1.00000    
  11      1.00000         1.00000         1.00000         1.00000         1.00000         1.00000         1.00000         1.00000         1.00000         1.00000    
  12      1.00000         1.00000         1.00000         1.00000         1.00000         1.00000         1.00000         1.00000         1.00000         1.00000    
  13      1.00000         1.00000         1.00000         1.00000         1.00000         1.00000         1.00000         1.00000         1.00000         1.00000    
  14      1.00000         1.00000         1.00000         1.00000         1.00000         1.00000         1.00000         1.00000         1.00000         1.00000    
  15      1.00000         1.00000         1.00000         1.00000         1.00000         1.00000         1.00000         1.00000         1.00000         1.00000    
1
  CONCENTRATION IN LAYER   3 AT END OF TIME STEP  55 IN STRESS PERIOD    2
  ---------------------------------------------------------------------------

                1               2               3               4               5               6               7               8               9              10
 ................................................................................................................................................................
   1      1.00000         1.00000         1.00000         1.00000         1.00000         1.00000         1.00000         1.00000         1.00000         1.00000    
   2      1.00000         1.00000         1.00000         1.00000         1.00000         1.00000         1.00000         1.00000         1.00000         1.00000    
   3      1.00000         1.00000         1.00000         1.00000         1.00000         1.00000         1.00000         1.00000         1.00000         1.00000    
   4      1.00000         1.00000         1.00000         1.00000         1.00000         1.00000         1.00000         1.00000         1.00000         1.00000    
   5      1.00000         1.00000         1.00000         1.00000         1.00000         1.00000         1.00000         1.00000         1.00000         1.00000    
   6      1.00000         1.00000         1.00000         1.00000         1.00000         1.00000         1.00000         1.00000         1.00000         1.00000    
   7      1.00000         1.00000         1.00000         1.00000         1.00000         1.00000         1.00000         1.00000         1.00000         1.00000    
   8      1.00000         1.00000         1.00000         1.00000         1.00000         1.00000         1.00000         1.00000         1.00000         1.00000    
   9      1.00000         1.00000         1.00000         1.00000         1.00000         1.00000         1.00000         1.00000         1.00000         1.00000    
  10      1.00000         1.00000         1.00000         1.00000         1.00000         1.00000         1.00000         1.00000         1.00000         1.00000    
  11      1.00000         1.00000         1.00000         1.00000         1.00000         1.00000         1.00000         1.00000         1.00000         1.00000    
  12      1.00000         1.00000         1.00000         1.00000         1.00000         1.00000         1.00000         1.00000         1.00000         1.00000    
  13      1.00000         1.00000         1.00000         1.00000         1.00000         1.00000         1.00000         1.00000         1.00000         1.00000    
  14      1.00000         1.00000         1.00000         1.00000         1.00000         1.00000         1.00000         1.00000         1.00000         1.00000    
  15      1.00000         1.00000         1.00000         1.00000         1.00000         1.00000         1.00000         1.00000         1.00000         1.00000    

 CONCENTRATION WILL BE SAVED ON UNIT 1030 AT END OF TIME STEP   55, STRESS PERIOD    2


  MASS BUDGET FOR ENTIRE MODEL AT END OF TIME STEP   55, STRESS PERIOD   2
  ---------------------------------------------------------------------------------------------------

     CUMULATIVE MASS      M       RATES FOR THIS TIME STEP      M/T          PACKAGE NAME    
     ------------------                 ------------------------                     ----------------

           IN:                                      IN:
           ---                                      ---
     STORAGE-AQUEOUS =          11.4355       STORAGE-AQUEOUS =           2.0475     MST                              
                 RIV =           0.0000                   RIV =           0.0000     SSM_RIV-1                        
                 CHD =           0.0000                   CHD =           0.0000     SSM_CHD-1                        
                 CNC =           4.7668                   CNC =           0.8525     CNC_0                            

            TOTAL IN =          16.2023              TOTAL IN =           2.9000

          OUT:                                     OUT:
          ----                                     ----
     STORAGE-AQUEOUS =           5.0169       STORAGE-AQUEOUS =           0.8966     MST                              
                 RIV =           0.0000                   RIV =           0.0000     SSM_RIV-1                        
                 CHD =          10.7531                   CHD =           1.9260     SSM_CHD-1                        
                 CNC =           0.4324                   CNC =       7.7434E-02     CNC_0                            

           TOTAL OUT =          16.2023             TOTAL OUT =           2.9000

            IN - OUT =       6.5896E-10              IN - OUT =       2.2505E-09

 PERCENT DISCREPANCY =           0.00     PERCENT DISCREPANCY =           0.00




         TIME SUMMARY AT END OF TIME STEP   55 IN STRESS PERIOD    2
                    SECONDS     MINUTES      HOURS       DAYS        YEARS
                    -----------------------------------------------------------
   TIME STEP LENGTH  7200.0      120.00      2.0000     8.33333E-02 2.28154E-04
 STRESS PERIOD TIME 3.96000E+05  6600.0      110.00      4.5833     1.25485E-02
         TOTAL TIME 4.82400E+05  8040.0      134.00      5.5833     1.52863E-02


end timestep


start timestep kper="2" kstp="56" mode="normal"

 UBDSV1 SAVING  STORAGE-AQUEOUS ON UNIT   1029 AT TIME STEP     56, STRESS PERIOD      2
 UBDSV1 SAVING     FLOW-JA-FACE ON UNIT   1029 AT TIME STEP     56, STRESS PERIOD      2
 UBDSV06 SAVING  SOURCE-SINK MIX IN MODEL GWT_RIVERBASE    PACKAGE GWT_RIVERBASE   CONNECTED TO MODEL GWT_RIVERBASE    PACKAGE SSM              ON UNIT   1029 AT TIME STEP     56, STRESS PERIOD      2
 UBDSV06 SAVING              CNC IN MODEL GWT_RIVERBASE    PACKAGE GWT_RIVERBASE   CONNECTED TO MODEL GWT_RIVERBASE    PACKAGE CNC_0            ON UNIT   1029 AT TIME STEP     56, STRESS PERIOD      2
1
  CONCENTRATION IN LAYER   1 AT END OF TIME STEP  56 IN STRESS PERIOD    2
  ---------------------------------------------------------------------------

                1               2               3               4               5               6               7               8               9              10
 ................................................................................................................................................................
   1      1.00000         1.00000         1.00000         1.00000         1.00000         1.00000         1.00000         1.00000         1.00000         1.00000    
   2     0.999988         1.00000        0.999988         1.00000         1.00000         1.00000         1.00000         1.00000         1.00000         1.00000    
   3      1.00000        0.999987         1.00000         1.00000         1.00000         1.00000         1.00000         1.00000         1.00000         1.00000    
   4      1.00000         1.00000        0.999987         1.00000         1.00000         1.00000         1.00000         1.00000         1.00000         1.00000    
   5      1.00000         1.00001         1.00000        0.999987        0.999986         1.00000         1.00000         1.00000         1.00000         1.00000    
   6      1.00002         10.0000         1.00000        0.999986         1.00000        0.999986         1.00000         1.00000         1.00000         1.00000    
   7      1.00001         10.0000         1.00000         1.00000         1.00000         1.00000        0.999985         1.00000         1.00000         1.00000    
   8      1.00000         1.00001         1.00000         1.00000         1.00000         1.00000         1.00000        0.999985        0.999984         1.00000    
   9      1.00000         1.00000         1.00000         1.00000         1.00000         1.00000         1.00000        0.999985         1.00000         1.00000    
  10      1.00000         1.00000         1.00000         1.00000         1.00000         1.00000         1.00000         1.00000         1.00000         1.00000    
  11      1.00000         1.00000         1.00000         1.00000         1.00000         1.00000         1.00000         1.00000         1.00000         1.00000    
  12      1.00000         1.00000         1.00000         1.00000         1.00000         1.00000         1.00000         1.00000         1.00000         1.00000    
  13      1.00000         1.00000         1.00000         1.00000         1.00000         1.00000         1.00000         1.00000         1.00000         1.00000    
  14      1.00000         1.00000         1.00000         1.00000         1.00000         1.00000         1.00000         1.00000         1.00000         1.00000    
  15      1.00000         1.00000         1.00000         1.00000         1.00000         1.00000         1.00000         1.00000         1.00000         1.00000    
1
  CONCENTRATION IN LAYER   2 AT END OF TIME STEP  56 IN STRESS PERIOD    2
  ---------------------------------------------------------------------------

                1               2               3               4               5               6               7               8               9              10
 ................................................................................................................................................................
   1      1.00000         1.00000         1.00000         1.00000         1.00000         1.00000         1.00000         1.00000         1.00000         1.00000    
   2      1.00000         1.00000         1.00000         1.00000         1.00000         1.00000         1.00000         1.00000         1.00000         1.00000    
   3      1.00000         1.00000         1.00000         1.00000         1.00000         1.00000         1.00000         1.00000         1.00000         1.00000    
   4      1.00000         1.00000         1.00000         1.00000         1.00000         1.00000         1.00000         1.00000         1.00000         1.00000    
   5      1.00000         1.00000         1.00000         1.00000         1.00000         1.00000         1.00000         1.00000         1.00000         1.00000    
   6      1.00000         1.00001         1.00000         1.00000         1.00000         1.00000         1.00000         1.00000         1.00000         1.00000    
   7      1.00000         1.00000         1.00000         1.00000         1.00000         1.00000         1.00000         1.00000         1.00000         1.00000    
   8      1.00000         1.00000         1.00000         1.00000         1.00000         1.00000         1.00000         1.00000         1.00000         1.00000    
   9      1.00000         1.00000         1.00000         1.00000         1.00000         1.00000         1.00000         1.00000         1.00000         1.00000    
  10      1.00000         1.00000         1.00000         1.00000         1.00000         1.00000         1.00000         1.00000         1.00000         1.00000    
  11      1.00000         1.00000         1.00000         1.00000         1.00000         1.00000         1.00000         1.00000         1.00000         1.00000    
  12      1.00000         1.00000         1.00000         1.00000         1.00000         1.00000         1.00000         1.00000         1.00000         1.00000    
  13      1.00000         1.00000         1.00000         1.00000         1.00000         1.00000         1.00000         1.00000         1.00000         1.00000    
  14      1.00000         1.00000         1.00000         1.00000         1.00000         1.00000         1.00000         1.00000         1.00000         1.00000    
  15      1.00000         1.00000         1.00000         1.00000         1.00000         1.00000         1.00000         1.00000         1.00000         1.00000    
1
  CONCENTRATION IN LAYER   3 AT END OF TIME STEP  56 IN STRESS PERIOD    2
  ---------------------------------------------------------------------------

                1               2               3               4               5               6               7               8               9              10
 ................................................................................................................................................................
   1      1.00000         1.00000         1.00000         1.00000         1.00000         1.00000         1.00000         1.00000         1.00000         1.00000    
   2      1.00000         1.00000         1.00000         1.00000         1.00000         1.00000         1.00000         1.00000         1.00000         1.00000    
   3      1.00000         1.00000         1.00000         1.00000         1.00000         1.00000         1.00000         1.00000         1.00000         1.00000    
   4      1.00000         1.00000         1.00000         1.00000         1.00000         1.00000         1.00000         1.00000         1.00000         1.00000    
   5      1.00000         1.00000         1.00000         1.00000         1.00000         1.00000         1.00000         1.00000         1.00000         1.00000    
   6      1.00000         1.00000         1.00000         1.00000         1.00000         1.00000         1.00000         1.00000         1.00000         1.00000    
   7      1.00000         1.00000         1.00000         1.00000         1.00000         1.00000         1.00000         1.00000         1.00000         1.00000    
   8      1.00000         1.00000         1.00000         1.00000         1.00000         1.00000         1.00000         1.00000         1.00000         1.00000    
   9      1.00000         1.00000         1.00000         1.00000         1.00000         1.00000         1.00000         1.00000         1.00000         1.00000    
  10      1.00000         1.00000         1.00000         1.00000         1.00000         1.00000         1.00000         1.00000         1.00000         1.00000    
  11      1.00000         1.00000         1.00000         1.00000         1.00000         1.00000         1.00000         1.00000         1.00000         1.00000    
  12      1.00000         1.00000         1.00000         1.00000         1.00000         1.00000         1.00000         1.00000         1.00000         1.00000    
  13      1.00000         1.00000         1.00000         1.00000         1.00000         1.00000         1.00000         1.00000         1.00000         1.00000    
  14      1.00000         1.00000         1.00000         1.00000         1.00000         1.00000         1.00000         1.00000         1.00000         1.00000    
  15      1.00000         1.00000         1.00000         1.00000         1.00000         1.00000         1.00000         1.00000         1.00000         1.00000    

 CONCENTRATION WILL BE SAVED ON UNIT 1030 AT END OF TIME STEP   56, STRESS PERIOD    2


  MASS BUDGET FOR ENTIRE MODEL AT END OF TIME STEP   56, STRESS PERIOD   2
  ---------------------------------------------------------------------------------------------------

     CUMULATIVE MASS      M       RATES FOR THIS TIME STEP      M/T          PACKAGE NAME    
     ------------------                 ------------------------                     ----------------

           IN:                                      IN:
           ---                                      ---
     STORAGE-AQUEOUS =          11.6061       STORAGE-AQUEOUS =           2.0475     MST                              
                 RIV =           0.0000                   RIV =           0.0000     SSM_RIV-1                        
                 CHD =           0.0000                   CHD =           0.0000     SSM_CHD-1                        
                 CNC =           4.8378                   CNC =           0.8525     CNC_0                            

            TOTAL IN =          16.4440              TOTAL IN =           2.9000

          OUT:                                     OUT:
          ----                                     ----
     STORAGE-AQUEOUS =           5.0916       STORAGE-AQUEOUS =           0.8966     MST                              
                 RIV =           0.0000                   RIV =           0.0000     SSM_RIV-1                        
                 CHD =          10.9136                   CHD =           1.9260     SSM_CHD-1                        
                 CNC =           0.4388                   CNC =       7.7434E-02     CNC_0                            

           TOTAL OUT =          16.4440             TOTAL OUT =           2.9000

            IN - OUT =       7.1017E-10              IN - OUT =       6.1450E-10

 PERCENT DISCREPANCY =           0.00     PERCENT DISCREPANCY =           0.00




         TIME SUMMARY AT END OF TIME STEP   56 IN STRESS PERIOD    2
                    SECONDS     MINUTES      HOURS       DAYS        YEARS
                    -----------------------------------------------------------
   TIME STEP LENGTH  7200.0      120.00      2.0000     8.33333E-02 2.28154E-04
 STRESS PERIOD TIME 4.03200E+05  6720.0      112.00      4.6667     1.27766E-02
         TOTAL TIME 4.89600E+05  8160.0      136.00      5.6667     1.55145E-02


end timestep


start timestep kper="2" kstp="57" mode="normal"

 UBDSV1 SAVING  STORAGE-AQUEOUS ON UNIT   1029 AT TIME STEP     57, STRESS PERIOD      2
 UBDSV1 SAVING     FLOW-JA-FACE ON UNIT   1029 AT TIME STEP     57, STRESS PERIOD      2
 UBDSV06 SAVING  SOURCE-SINK MIX IN MODEL GWT_RIVERBASE    PACKAGE GWT_RIVERBASE   CONNECTED TO MODEL GWT_RIVERBASE    PACKAGE SSM              ON UNIT   1029 AT TIME STEP     57, STRESS PERIOD      2
 UBDSV06 SAVING              CNC IN MODEL GWT_RIVERBASE    PACKAGE GWT_RIVERBASE   CONNECTED TO MODEL GWT_RIVERBASE    PACKAGE CNC_0            ON UNIT   1029 AT TIME STEP     57, STRESS PERIOD      2
1
  CONCENTRATION IN LAYER   1 AT END OF TIME STEP  57 IN STRESS PERIOD    2
  ---------------------------------------------------------------------------

                1               2               3               4               5               6               7               8               9              10
 ................................................................................................................................................................
   1      1.00000         1.00000         1.00000         1.00000         1.00000         1.00000         1.00000         1.00000         1.00000         1.00000    
   2     0.999988         1.00000        0.999988         1.00000         1.00000         1.00000         1.00000         1.00000         1.00000         1.00000    
   3      1.00000        0.999987         1.00000         1.00000         1.00000         1.00000         1.00000         1.00000         1.00000         1.00000    
   4      1.00000         1.00000        0.999987         1.00000         1.00000         1.00000         1.00000         1.00000         1.00000         1.00000    
   5      1.00000         1.00002         1.00000        0.999987        0.999986         1.00000         1.00000         1.00000         1.00000         1.00000    
   6      1.00002         10.0000         1.00000        0.999986         1.00000        0.999986         1.00000         1.00000         1.00000         1.00000    
   7      1.00001         10.0000         1.00000         1.00000         1.00000         1.00000        0.999985         1.00000         1.00000         1.00000    
   8      1.00000         1.00001         1.00000         1.00000         1.00000         1.00000         1.00000        0.999985        0.999984         1.00000    
   9      1.00000         1.00000         1.00000         1.00000         1.00000         1.00000         1.00000        0.999984         1.00000         1.00000    
  10      1.00000         1.00000         1.00000         1.00000         1.00000         1.00000         1.00000         1.00000         1.00000         1.00000    
  11      1.00000         1.00000         1.00000         1.00000         1.00000         1.00000         1.00000         1.00000         1.00000         1.00000    
  12      1.00000         1.00000         1.00000         1.00000         1.00000         1.00000         1.00000         1.00000         1.00000         1.00000    
  13      1.00000         1.00000         1.00000         1.00000         1.00000         1.00000         1.00000         1.00000         1.00000         1.00000    
  14      1.00000         1.00000         1.00000         1.00000         1.00000         1.00000         1.00000         1.00000         1.00000         1.00000    
  15      1.00000         1.00000         1.00000         1.00000         1.00000         1.00000         1.00000         1.00000         1.00000         1.00000    
1
  CONCENTRATION IN LAYER   2 AT END OF TIME STEP  57 IN STRESS PERIOD    2
  ---------------------------------------------------------------------------

                1               2               3               4               5               6               7               8               9              10
 ................................................................................................................................................................
   1      1.00000         1.00000         1.00000         1.00000         1.00000         1.00000         1.00000         1.00000         1.00000         1.00000    
   2      1.00000         1.00000         1.00000         1.00000         1.00000         1.00000         1.00000         1.00000         1.00000         1.00000    
   3      1.00000         1.00000         1.00000         1.00000         1.00000         1.00000         1.00000         1.00000         1.00000         1.00000    
   4      1.00000         1.00000         1.00000         1.00000         1.00000         1.00000         1.00000         1.00000         1.00000         1.00000    
   5      1.00000         1.00000         1.00000         1.00000         1.00000         1.00000         1.00000         1.00000         1.00000         1.00000    
   6      1.00000         1.00001         1.00000         1.00000         1.00000         1.00000         1.00000         1.00000         1.00000         1.00000    
   7      1.00000         1.00000         1.00000         1.00000         1.00000         1.00000         1.00000         1.00000         1.00000         1.00000    
   8      1.00000         1.00000         1.00000         1.00000         1.00000         1.00000         1.00000         1.00000         1.00000         1.00000    
   9      1.00000         1.00000         1.00000         1.00000         1.00000         1.00000         1.00000         1.00000         1.00000         1.00000    
  10      1.00000         1.00000         1.00000         1.00000         1.00000         1.00000         1.00000         1.00000         1.00000         1.00000    
  11      1.00000         1.00000         1.00000         1.00000         1.00000         1.00000         1.00000         1.00000         1.00000         1.00000    
  12      1.00000         1.00000         1.00000         1.00000         1.00000         1.00000         1.00000         1.00000         1.00000         1.00000    
  13      1.00000         1.00000         1.00000         1.00000         1.00000         1.00000         1.00000         1.00000         1.00000         1.00000    
  14      1.00000         1.00000         1.00000         1.00000         1.00000         1.00000         1.00000         1.00000         1.00000         1.00000    
  15      1.00000         1.00000         1.00000         1.00000         1.00000         1.00000         1.00000         1.00000         1.00000         1.00000    
1
  CONCENTRATION IN LAYER   3 AT END OF TIME STEP  57 IN STRESS PERIOD    2
  ---------------------------------------------------------------------------

                1               2               3               4               5               6               7               8               9              10
 ................................................................................................................................................................
   1      1.00000         1.00000         1.00000         1.00000         1.00000         1.00000         1.00000         1.00000         1.00000         1.00000    
   2      1.00000         1.00000         1.00000         1.00000         1.00000         1.00000         1.00000         1.00000         1.00000         1.00000    
   3      1.00000         1.00000         1.00000         1.00000         1.00000         1.00000         1.00000         1.00000         1.00000         1.00000    
   4      1.00000         1.00000         1.00000         1.00000         1.00000         1.00000         1.00000         1.00000         1.00000         1.00000    
   5      1.00000         1.00000         1.00000         1.00000         1.00000         1.00000         1.00000         1.00000         1.00000         1.00000    
   6      1.00000         1.00000         1.00000         1.00000         1.00000         1.00000         1.00000         1.00000         1.00000         1.00000    
   7      1.00000         1.00000         1.00000         1.00000         1.00000         1.00000         1.00000         1.00000         1.00000         1.00000    
   8      1.00000         1.00000         1.00000         1.00000         1.00000         1.00000         1.00000         1.00000         1.00000         1.00000    
   9      1.00000         1.00000         1.00000         1.00000         1.00000         1.00000         1.00000         1.00000         1.00000         1.00000    
  10      1.00000         1.00000         1.00000         1.00000         1.00000         1.00000         1.00000         1.00000         1.00000         1.00000    
  11      1.00000         1.00000         1.00000         1.00000         1.00000         1.00000         1.00000         1.00000         1.00000         1.00000    
  12      1.00000         1.00000         1.00000         1.00000         1.00000         1.00000         1.00000         1.00000         1.00000         1.00000    
  13      1.00000         1.00000         1.00000         1.00000         1.00000         1.00000         1.00000         1.00000         1.00000         1.00000    
  14      1.00000         1.00000         1.00000         1.00000         1.00000         1.00000         1.00000         1.00000         1.00000         1.00000    
  15      1.00000         1.00000         1.00000         1.00000         1.00000         1.00000         1.00000         1.00000         1.00000         1.00000    

 CONCENTRATION WILL BE SAVED ON UNIT 1030 AT END OF TIME STEP   57, STRESS PERIOD    2


  MASS BUDGET FOR ENTIRE MODEL AT END OF TIME STEP   57, STRESS PERIOD   2
  ---------------------------------------------------------------------------------------------------

     CUMULATIVE MASS      M       RATES FOR THIS TIME STEP      M/T          PACKAGE NAME    
     ------------------                 ------------------------                     ----------------

           IN:                                      IN:
           ---                                      ---
     STORAGE-AQUEOUS =          11.7768       STORAGE-AQUEOUS =           2.0475     MST                              
                 RIV =           0.0000                   RIV =           0.0000     SSM_RIV-1                        
                 CHD =           0.0000                   CHD =           0.0000     SSM_CHD-1                        
                 CNC =           4.9089                   CNC =           0.8525     CNC_0                            

            TOTAL IN =          16.6856              TOTAL IN =           2.9000

          OUT:                                     OUT:
          ----                                     ----
     STORAGE-AQUEOUS =           5.1663       STORAGE-AQUEOUS =           0.8966     MST                              
                 RIV =           0.0000                   RIV =           0.0000     SSM_RIV-1                        
                 CHD =          11.0741                   CHD =           1.9260     SSM_CHD-1                        
                 CNC =           0.4453                   CNC =       7.7434E-02     CNC_0                            

           TOTAL OUT =          16.6856             TOTAL OUT =           2.9000

            IN - OUT =       6.8211E-10              IN - OUT =      -3.3664E-10

 PERCENT DISCREPANCY =           0.00     PERCENT DISCREPANCY =          -0.00




         TIME SUMMARY AT END OF TIME STEP   57 IN STRESS PERIOD    2
                    SECONDS     MINUTES      HOURS       DAYS        YEARS
                    -----------------------------------------------------------
   TIME STEP LENGTH  7200.0      120.00      2.0000     8.33333E-02 2.28154E-04
 STRESS PERIOD TIME 4.10400E+05  6840.0      114.00      4.7500     1.30048E-02
         TOTAL TIME 4.96800E+05  8280.0      138.00      5.7500     1.57426E-02


end timestep


start timestep kper="2" kstp="58" mode="normal"

 UBDSV1 SAVING  STORAGE-AQUEOUS ON UNIT   1029 AT TIME STEP     58, STRESS PERIOD      2
 UBDSV1 SAVING     FLOW-JA-FACE ON UNIT   1029 AT TIME STEP     58, STRESS PERIOD      2
 UBDSV06 SAVING  SOURCE-SINK MIX IN MODEL GWT_RIVERBASE    PACKAGE GWT_RIVERBASE   CONNECTED TO MODEL GWT_RIVERBASE    PACKAGE SSM              ON UNIT   1029 AT TIME STEP     58, STRESS PERIOD      2
 UBDSV06 SAVING              CNC IN MODEL GWT_RIVERBASE    PACKAGE GWT_RIVERBASE   CONNECTED TO MODEL GWT_RIVERBASE    PACKAGE CNC_0            ON UNIT   1029 AT TIME STEP     58, STRESS PERIOD      2
1
  CONCENTRATION IN LAYER   1 AT END OF TIME STEP  58 IN STRESS PERIOD    2
  ---------------------------------------------------------------------------

                1               2               3               4               5               6               7               8               9              10
 ................................................................................................................................................................
   1      1.00000         1.00000         1.00000         1.00000         1.00000         1.00000         1.00000         1.00000         1.00000         1.00000    
   2     0.999988         1.00000        0.999987         1.00000         1.00000         1.00000         1.00000         1.00000         1.00000         1.00000    
   3      1.00000        0.999987         1.00000         1.00000         1.00000         1.00000         1.00000         1.00000         1.00000         1.00000    
   4      1.00000         1.00000        0.999987         1.00000         1.00000         1.00000         1.00000         1.00000         1.00000         1.00000    
   5      1.00000         1.00002         1.00000        0.999986        0.999986         1.00000         1.00000         1.00000         1.00000         1.00000    
   6      1.00002         10.0000         1.00000        0.999986         1.00000        0.999985         1.00000         1.00000         1.00000         1.00000    
   7      1.00001         10.0000         1.00000         1.00000         1.00000         1.00000        0.999985         1.00000         1.00000         1.00000    
   8      1.00000         1.00001         1.00000         1.00000         1.00000         1.00000         1.00000        0.999985        0.999984         1.00000    
   9      1.00000         1.00000         1.00000         1.00000         1.00000         1.00000         1.00000        0.999984         1.00000         1.00000    
  10      1.00000         1.00000         1.00000         1.00000         1.00000         1.00000         1.00000         1.00000         1.00000         1.00000    
  11      1.00000         1.00000         1.00000         1.00000         1.00000         1.00000         1.00000         1.00000         1.00000         1.00000    
  12      1.00000         1.00000         1.00000         1.00000         1.00000         1.00000         1.00000         1.00000         1.00000         1.00000    
  13      1.00000         1.00000         1.00000         1.00000         1.00000         1.00000         1.00000         1.00000         1.00000         1.00000    
  14      1.00000         1.00000         1.00000         1.00000         1.00000         1.00000         1.00000         1.00000         1.00000         1.00000    
  15      1.00000         1.00000         1.00000         1.00000         1.00000         1.00000         1.00000         1.00000         1.00000         1.00000    
1
  CONCENTRATION IN LAYER   2 AT END OF TIME STEP  58 IN STRESS PERIOD    2
  ---------------------------------------------------------------------------

                1               2               3               4               5               6               7               8               9              10
 ................................................................................................................................................................
   1      1.00000         1.00000         1.00000         1.00000         1.00000         1.00000         1.00000         1.00000         1.00000         1.00000    
   2      1.00000         1.00000         1.00000         1.00000         1.00000         1.00000         1.00000         1.00000         1.00000         1.00000    
   3      1.00000         1.00000         1.00000         1.00000         1.00000         1.00000         1.00000         1.00000         1.00000         1.00000    
   4      1.00000         1.00000         1.00000         1.00000         1.00000         1.00000         1.00000         1.00000         1.00000         1.00000    
   5      1.00000         1.00000         1.00000         1.00000         1.00000         1.00000         1.00000         1.00000         1.00000         1.00000    
   6      1.00000         1.00001         1.00000         1.00000         1.00000         1.00000         1.00000         1.00000         1.00000         1.00000    
   7      1.00000         1.00000         1.00000         1.00000         1.00000         1.00000         1.00000         1.00000         1.00000         1.00000    
   8      1.00000         1.00000         1.00000         1.00000         1.00000         1.00000         1.00000         1.00000         1.00000         1.00000    
   9      1.00000         1.00000         1.00000         1.00000         1.00000         1.00000         1.00000         1.00000         1.00000         1.00000    
  10      1.00000         1.00000         1.00000         1.00000         1.00000         1.00000         1.00000         1.00000         1.00000         1.00000    
  11      1.00000         1.00000         1.00000         1.00000         1.00000         1.00000         1.00000         1.00000         1.00000         1.00000    
  12      1.00000         1.00000         1.00000         1.00000         1.00000         1.00000         1.00000         1.00000         1.00000         1.00000    
  13      1.00000         1.00000         1.00000         1.00000         1.00000         1.00000         1.00000         1.00000         1.00000         1.00000    
  14      1.00000         1.00000         1.00000         1.00000         1.00000         1.00000         1.00000         1.00000         1.00000         1.00000    
  15      1.00000         1.00000         1.00000         1.00000         1.00000         1.00000         1.00000         1.00000         1.00000         1.00000    
1
  CONCENTRATION IN LAYER   3 AT END OF TIME STEP  58 IN STRESS PERIOD    2
  ---------------------------------------------------------------------------

                1               2               3               4               5               6               7               8               9              10
 ................................................................................................................................................................
   1      1.00000         1.00000         1.00000         1.00000         1.00000         1.00000         1.00000         1.00000         1.00000         1.00000    
   2      1.00000         1.00000         1.00000         1.00000         1.00000         1.00000         1.00000         1.00000         1.00000         1.00000    
   3      1.00000         1.00000         1.00000         1.00000         1.00000         1.00000         1.00000         1.00000         1.00000         1.00000    
   4      1.00000         1.00000         1.00000         1.00000         1.00000         1.00000         1.00000         1.00000         1.00000         1.00000    
   5      1.00000         1.00000         1.00000         1.00000         1.00000         1.00000         1.00000         1.00000         1.00000         1.00000    
   6      1.00000         1.00000         1.00000         1.00000         1.00000         1.00000         1.00000         1.00000         1.00000         1.00000    
   7      1.00000         1.00000         1.00000         1.00000         1.00000         1.00000         1.00000         1.00000         1.00000         1.00000    
   8      1.00000         1.00000         1.00000         1.00000         1.00000         1.00000         1.00000         1.00000         1.00000         1.00000    
   9      1.00000         1.00000         1.00000         1.00000         1.00000         1.00000         1.00000         1.00000         1.00000         1.00000    
  10      1.00000         1.00000         1.00000         1.00000         1.00000         1.00000         1.00000         1.00000         1.00000         1.00000    
  11      1.00000         1.00000         1.00000         1.00000         1.00000         1.00000         1.00000         1.00000         1.00000         1.00000    
  12      1.00000         1.00000         1.00000         1.00000         1.00000         1.00000         1.00000         1.00000         1.00000         1.00000    
  13      1.00000         1.00000         1.00000         1.00000         1.00000         1.00000         1.00000         1.00000         1.00000         1.00000    
  14      1.00000         1.00000         1.00000         1.00000         1.00000         1.00000         1.00000         1.00000         1.00000         1.00000    
  15      1.00000         1.00000         1.00000         1.00000         1.00000         1.00000         1.00000         1.00000         1.00000         1.00000    

 CONCENTRATION WILL BE SAVED ON UNIT 1030 AT END OF TIME STEP   58, STRESS PERIOD    2


  MASS BUDGET FOR ENTIRE MODEL AT END OF TIME STEP   58, STRESS PERIOD   2
  ---------------------------------------------------------------------------------------------------

     CUMULATIVE MASS      M       RATES FOR THIS TIME STEP      M/T          PACKAGE NAME    
     ------------------                 ------------------------                     ----------------

           IN:                                      IN:
           ---                                      ---
     STORAGE-AQUEOUS =          11.9474       STORAGE-AQUEOUS =           2.0475     MST                              
                 RIV =           0.0000                   RIV =           0.0000     SSM_RIV-1                        
                 CHD =           0.0000                   CHD =           0.0000     SSM_CHD-1                        
                 CNC =           4.9799                   CNC =           0.8525     CNC_0                            

            TOTAL IN =          16.9273              TOTAL IN =           2.9000

          OUT:                                     OUT:
          ----                                     ----
     STORAGE-AQUEOUS =           5.2410       STORAGE-AQUEOUS =           0.8966     MST                              
                 RIV =           0.0000                   RIV =           0.0000     SSM_RIV-1                        
                 CHD =          11.2346                   CHD =           1.9260     SSM_CHD-1                        
                 CNC =           0.4517                   CNC =       7.7433E-02     CNC_0                            

           TOTAL OUT =          16.9273             TOTAL OUT =           2.9000

            IN - OUT =       7.0249E-10              IN - OUT =       2.4456E-10

 PERCENT DISCREPANCY =           0.00     PERCENT DISCREPANCY =           0.00




         TIME SUMMARY AT END OF TIME STEP   58 IN STRESS PERIOD    2
                    SECONDS     MINUTES      HOURS       DAYS        YEARS
                    -----------------------------------------------------------
   TIME STEP LENGTH  7200.0      120.00      2.0000     8.33333E-02 2.28154E-04
 STRESS PERIOD TIME 4.17600E+05  6960.0      116.00      4.8333     1.32329E-02
         TOTAL TIME 5.04000E+05  8400.0      140.00      5.8333     1.59708E-02


end timestep


start timestep kper="2" kstp="59" mode="normal"

 UBDSV1 SAVING  STORAGE-AQUEOUS ON UNIT   1029 AT TIME STEP     59, STRESS PERIOD      2
 UBDSV1 SAVING     FLOW-JA-FACE ON UNIT   1029 AT TIME STEP     59, STRESS PERIOD      2
 UBDSV06 SAVING  SOURCE-SINK MIX IN MODEL GWT_RIVERBASE    PACKAGE GWT_RIVERBASE   CONNECTED TO MODEL GWT_RIVERBASE    PACKAGE SSM              ON UNIT   1029 AT TIME STEP     59, STRESS PERIOD      2
 UBDSV06 SAVING              CNC IN MODEL GWT_RIVERBASE    PACKAGE GWT_RIVERBASE   CONNECTED TO MODEL GWT_RIVERBASE    PACKAGE CNC_0            ON UNIT   1029 AT TIME STEP     59, STRESS PERIOD      2
1
  CONCENTRATION IN LAYER   1 AT END OF TIME STEP  59 IN STRESS PERIOD    2
  ---------------------------------------------------------------------------

                1               2               3               4               5               6               7               8               9              10
 ................................................................................................................................................................
   1      1.00000         1.00000         1.00000         1.00000         1.00000         1.00000         1.00000         1.00000         1.00000         1.00000    
   2     0.999988         1.00000        0.999987         1.00000         1.00000         1.00000         1.00000         1.00000         1.00000         1.00000    
   3      1.00000        0.999987         1.00000         1.00000         1.00000         1.00000         1.00000         1.00000         1.00000         1.00000    
   4      1.00000         1.00000        0.999987         1.00000         1.00000         1.00000         1.00000         1.00000         1.00000         1.00000    
   5      1.00000         1.00002         1.00000        0.999986        0.999986         1.00000         1.00000         1.00000         1.00000         1.00000    
   6      1.00002         10.0000         1.00000        0.999986         1.00000        0.999985         1.00000         1.00000         1.00000         1.00000    
   7      1.00001         10.0000         1.00000         1.00000         1.00000         1.00000        0.999985         1.00000         1.00000         1.00000    
   8      1.00000         1.00001         1.00000         1.00000         1.00000         1.00000         1.00000        0.999984        0.999984         1.00000    
   9      1.00000         1.00000         1.00000         1.00000         1.00000         1.00000         1.00000        0.999984         1.00000         1.00000    
  10      1.00000         1.00000         1.00000         1.00000         1.00000         1.00000         1.00000         1.00000         1.00000         1.00000    
  11      1.00000         1.00000         1.00000         1.00000         1.00000         1.00000         1.00000         1.00000         1.00000         1.00000    
  12      1.00000         1.00000         1.00000         1.00000         1.00000         1.00000         1.00000         1.00000         1.00000         1.00000    
  13      1.00000         1.00000         1.00000         1.00000         1.00000         1.00000         1.00000         1.00000         1.00000         1.00000    
  14      1.00000         1.00000         1.00000         1.00000         1.00000         1.00000         1.00000         1.00000         1.00000         1.00000    
  15      1.00000         1.00000         1.00000         1.00000         1.00000         1.00000         1.00000         1.00000         1.00000         1.00000    
1
  CONCENTRATION IN LAYER   2 AT END OF TIME STEP  59 IN STRESS PERIOD    2
  ---------------------------------------------------------------------------

                1               2               3               4               5               6               7               8               9              10
 ................................................................................................................................................................
   1      1.00000         1.00000         1.00000         1.00000         1.00000         1.00000         1.00000         1.00000         1.00000         1.00000    
   2      1.00000         1.00000         1.00000         1.00000         1.00000         1.00000         1.00000         1.00000         1.00000         1.00000    
   3      1.00000         1.00000         1.00000         1.00000         1.00000         1.00000         1.00000         1.00000         1.00000         1.00000    
   4      1.00000         1.00000         1.00000         1.00000         1.00000         1.00000         1.00000         1.00000         1.00000         1.00000    
   5      1.00000         1.00000         1.00000         1.00000         1.00000         1.00000         1.00000         1.00000         1.00000         1.00000    
   6      1.00000         1.00001         1.00000         1.00000         1.00000         1.00000         1.00000         1.00000         1.00000         1.00000    
   7      1.00000         1.00000         1.00000         1.00000         1.00000         1.00000         1.00000         1.00000         1.00000         1.00000    
   8      1.00000         1.00000         1.00000         1.00000         1.00000         1.00000         1.00000         1.00000         1.00000         1.00000    
   9      1.00000         1.00000         1.00000         1.00000         1.00000         1.00000         1.00000         1.00000         1.00000         1.00000    
  10      1.00000         1.00000         1.00000         1.00000         1.00000         1.00000         1.00000         1.00000         1.00000         1.00000    
  11      1.00000         1.00000         1.00000         1.00000         1.00000         1.00000         1.00000         1.00000         1.00000         1.00000    
  12      1.00000         1.00000         1.00000         1.00000         1.00000         1.00000         1.00000         1.00000         1.00000         1.00000    
  13      1.00000         1.00000         1.00000         1.00000         1.00000         1.00000         1.00000         1.00000         1.00000         1.00000    
  14      1.00000         1.00000         1.00000         1.00000         1.00000         1.00000         1.00000         1.00000         1.00000         1.00000    
  15      1.00000         1.00000         1.00000         1.00000         1.00000         1.00000         1.00000         1.00000         1.00000         1.00000    
1
  CONCENTRATION IN LAYER   3 AT END OF TIME STEP  59 IN STRESS PERIOD    2
  ---------------------------------------------------------------------------

                1               2               3               4               5               6               7               8               9              10
 ................................................................................................................................................................
   1      1.00000         1.00000         1.00000         1.00000         1.00000         1.00000         1.00000         1.00000         1.00000         1.00000    
   2      1.00000         1.00000         1.00000         1.00000         1.00000         1.00000         1.00000         1.00000         1.00000         1.00000    
   3      1.00000         1.00000         1.00000         1.00000         1.00000         1.00000         1.00000         1.00000         1.00000         1.00000    
   4      1.00000         1.00000         1.00000         1.00000         1.00000         1.00000         1.00000         1.00000         1.00000         1.00000    
   5      1.00000         1.00000         1.00000         1.00000         1.00000         1.00000         1.00000         1.00000         1.00000         1.00000    
   6      1.00000         1.00000         1.00000         1.00000         1.00000         1.00000         1.00000         1.00000         1.00000         1.00000    
   7      1.00000         1.00000         1.00000         1.00000         1.00000         1.00000         1.00000         1.00000         1.00000         1.00000    
   8      1.00000         1.00000         1.00000         1.00000         1.00000         1.00000         1.00000         1.00000         1.00000         1.00000    
   9      1.00000         1.00000         1.00000         1.00000         1.00000         1.00000         1.00000         1.00000         1.00000         1.00000    
  10      1.00000         1.00000         1.00000         1.00000         1.00000         1.00000         1.00000         1.00000         1.00000         1.00000    
  11      1.00000         1.00000         1.00000         1.00000         1.00000         1.00000         1.00000         1.00000         1.00000         1.00000    
  12      1.00000         1.00000         1.00000         1.00000         1.00000         1.00000         1.00000         1.00000         1.00000         1.00000    
  13      1.00000         1.00000         1.00000         1.00000         1.00000         1.00000         1.00000         1.00000         1.00000         1.00000    
  14      1.00000         1.00000         1.00000         1.00000         1.00000         1.00000         1.00000         1.00000         1.00000         1.00000    
  15      1.00000         1.00000         1.00000         1.00000         1.00000         1.00000         1.00000         1.00000         1.00000         1.00000    

 CONCENTRATION WILL BE SAVED ON UNIT 1030 AT END OF TIME STEP   59, STRESS PERIOD    2


  MASS BUDGET FOR ENTIRE MODEL AT END OF TIME STEP   59, STRESS PERIOD   2
  ---------------------------------------------------------------------------------------------------

     CUMULATIVE MASS      M       RATES FOR THIS TIME STEP      M/T          PACKAGE NAME    
     ------------------                 ------------------------                     ----------------

           IN:                                      IN:
           ---                                      ---
     STORAGE-AQUEOUS =          12.1180       STORAGE-AQUEOUS =           2.0475     MST                              
                 RIV =           0.0000                   RIV =           0.0000     SSM_RIV-1                        
                 CHD =           0.0000                   CHD =           0.0000     SSM_CHD-1                        
                 CNC =           5.0510                   CNC =           0.8525     CNC_0                            

            TOTAL IN =          17.1690              TOTAL IN =           2.9000

          OUT:                                     OUT:
          ----                                     ----
     STORAGE-AQUEOUS =           5.3157       STORAGE-AQUEOUS =           0.8966     MST                              
                 RIV =           0.0000                   RIV =           0.0000     SSM_RIV-1                        
                 CHD =          11.3951                   CHD =           1.9260     SSM_CHD-1                        
                 CNC =           0.4582                   CNC =       7.7433E-02     CNC_0                            

           TOTAL OUT =          17.1690             TOTAL OUT =           2.9000

            IN - OUT =       8.4330E-10              IN - OUT =       1.6898E-09

 PERCENT DISCREPANCY =           0.00     PERCENT DISCREPANCY =           0.00




         TIME SUMMARY AT END OF TIME STEP   59 IN STRESS PERIOD    2
                    SECONDS     MINUTES      HOURS       DAYS        YEARS
                    -----------------------------------------------------------
   TIME STEP LENGTH  7200.0      120.00      2.0000     8.33333E-02 2.28154E-04
 STRESS PERIOD TIME 4.24800E+05  7080.0      118.00      4.9167     1.34611E-02
         TOTAL TIME 5.11200E+05  8520.0      142.00      5.9167     1.61990E-02


end timestep


start timestep kper="2" kstp="60" mode="normal"

 UBDSV1 SAVING  STORAGE-AQUEOUS ON UNIT   1029 AT TIME STEP     60, STRESS PERIOD      2
 UBDSV1 SAVING     FLOW-JA-FACE ON UNIT   1029 AT TIME STEP     60, STRESS PERIOD      2
 UBDSV06 SAVING  SOURCE-SINK MIX IN MODEL GWT_RIVERBASE    PACKAGE GWT_RIVERBASE   CONNECTED TO MODEL GWT_RIVERBASE    PACKAGE SSM              ON UNIT   1029 AT TIME STEP     60, STRESS PERIOD      2
 UBDSV06 SAVING              CNC IN MODEL GWT_RIVERBASE    PACKAGE GWT_RIVERBASE   CONNECTED TO MODEL GWT_RIVERBASE    PACKAGE CNC_0            ON UNIT   1029 AT TIME STEP     60, STRESS PERIOD      2
1
  CONCENTRATION IN LAYER   1 AT END OF TIME STEP  60 IN STRESS PERIOD    2
  ---------------------------------------------------------------------------

                1               2               3               4               5               6               7               8               9              10
 ................................................................................................................................................................
   1      1.00000         1.00000         1.00000         1.00000         1.00000         1.00000         1.00000         1.00000         1.00000         1.00000    
   2     0.999987         1.00000        0.999987         1.00000         1.00000         1.00000         1.00000         1.00000         1.00000         1.00000    
   3      1.00000        0.999987         1.00000         1.00000         1.00000         1.00000         1.00000         1.00000         1.00000         1.00000    
   4      1.00000         1.00000        0.999986         1.00000         1.00000         1.00000         1.00000         1.00000         1.00000         1.00000    
   5      1.00000         1.00002         1.00000        0.999986        0.999985         1.00000         1.00000         1.00000         1.00000         1.00000    
   6      1.00002         10.0000         1.00000        0.999986         1.00000        0.999985         1.00000         1.00000         1.00000         1.00000    
   7      1.00001         10.0000         1.00000         1.00000         1.00000         1.00000        0.999985         1.00000         1.00000         1.00000    
   8      1.00000         1.00001         1.00000         1.00000         1.00000         1.00000         1.00000        0.999984        0.999983         1.00000    
   9      1.00000         1.00000         1.00000         1.00000         1.00000         1.00000         1.00000        0.999984         1.00000         1.00000    
  10      1.00000         1.00000         1.00000         1.00000         1.00000         1.00000         1.00000         1.00000         1.00000         1.00000    
  11      1.00000         1.00000         1.00000         1.00000         1.00000         1.00000         1.00000         1.00000         1.00000         1.00000    
  12      1.00000         1.00000         1.00000         1.00000         1.00000         1.00000         1.00000         1.00000         1.00000         1.00000    
  13      1.00000         1.00000         1.00000         1.00000         1.00000         1.00000         1.00000         1.00000         1.00000         1.00000    
  14      1.00000         1.00000         1.00000         1.00000         1.00000         1.00000         1.00000         1.00000         1.00000         1.00000    
  15      1.00000         1.00000         1.00000         1.00000         1.00000         1.00000         1.00000         1.00000         1.00000         1.00000    
1
  CONCENTRATION IN LAYER   2 AT END OF TIME STEP  60 IN STRESS PERIOD    2
  ---------------------------------------------------------------------------

                1               2               3               4               5               6               7               8               9              10
 ................................................................................................................................................................
   1      1.00000         1.00000         1.00000         1.00000         1.00000         1.00000         1.00000         1.00000         1.00000         1.00000    
   2      1.00000         1.00000         1.00000         1.00000         1.00000         1.00000         1.00000         1.00000         1.00000         1.00000    
   3      1.00000         1.00000         1.00000         1.00000         1.00000         1.00000         1.00000         1.00000         1.00000         1.00000    
   4      1.00000         1.00000         1.00000         1.00000         1.00000         1.00000         1.00000         1.00000         1.00000         1.00000    
   5      1.00000         1.00000         1.00000         1.00000         1.00000         1.00000         1.00000         1.00000         1.00000         1.00000    
   6      1.00000         1.00001         1.00000         1.00000         1.00000         1.00000         1.00000         1.00000         1.00000         1.00000    
   7      1.00000         1.00000         1.00000         1.00000         1.00000         1.00000         1.00000         1.00000         1.00000         1.00000    
   8      1.00000         1.00000         1.00000         1.00000         1.00000         1.00000         1.00000         1.00000         1.00000         1.00000    
   9      1.00000         1.00000         1.00000         1.00000         1.00000         1.00000         1.00000         1.00000         1.00000         1.00000    
  10      1.00000         1.00000         1.00000         1.00000         1.00000         1.00000         1.00000         1.00000         1.00000         1.00000    
  11      1.00000         1.00000         1.00000         1.00000         1.00000         1.00000         1.00000         1.00000         1.00000         1.00000    
  12      1.00000         1.00000         1.00000         1.00000         1.00000         1.00000         1.00000         1.00000         1.00000         1.00000    
  13      1.00000         1.00000         1.00000         1.00000         1.00000         1.00000         1.00000         1.00000         1.00000         1.00000    
  14      1.00000         1.00000         1.00000         1.00000         1.00000         1.00000         1.00000         1.00000         1.00000         1.00000    
  15      1.00000         1.00000         1.00000         1.00000         1.00000         1.00000         1.00000         1.00000         1.00000         1.00000    
1
  CONCENTRATION IN LAYER   3 AT END OF TIME STEP  60 IN STRESS PERIOD    2
  ---------------------------------------------------------------------------

                1               2               3               4               5               6               7               8               9              10
 ................................................................................................................................................................
   1      1.00000         1.00000         1.00000         1.00000         1.00000         1.00000         1.00000         1.00000         1.00000         1.00000    
   2      1.00000         1.00000         1.00000         1.00000         1.00000         1.00000         1.00000         1.00000         1.00000         1.00000    
   3      1.00000         1.00000         1.00000         1.00000         1.00000         1.00000         1.00000         1.00000         1.00000         1.00000    
   4      1.00000         1.00000         1.00000         1.00000         1.00000         1.00000         1.00000         1.00000         1.00000         1.00000    
   5      1.00000         1.00000         1.00000         1.00000         1.00000         1.00000         1.00000         1.00000         1.00000         1.00000    
   6      1.00000         1.00000         1.00000         1.00000         1.00000         1.00000         1.00000         1.00000         1.00000         1.00000    
   7      1.00000         1.00000         1.00000         1.00000         1.00000         1.00000         1.00000         1.00000         1.00000         1.00000    
   8      1.00000         1.00000         1.00000         1.00000         1.00000         1.00000         1.00000         1.00000         1.00000         1.00000    
   9      1.00000         1.00000         1.00000         1.00000         1.00000         1.00000         1.00000         1.00000         1.00000         1.00000    
  10      1.00000         1.00000         1.00000         1.00000         1.00000         1.00000         1.00000         1.00000         1.00000         1.00000    
  11      1.00000         1.00000         1.00000         1.00000         1.00000         1.00000         1.00000         1.00000         1.00000         1.00000    
  12      1.00000         1.00000         1.00000         1.00000         1.00000         1.00000         1.00000         1.00000         1.00000         1.00000    
  13      1.00000         1.00000         1.00000         1.00000         1.00000         1.00000         1.00000         1.00000         1.00000         1.00000    
  14      1.00000         1.00000         1.00000         1.00000         1.00000         1.00000         1.00000         1.00000         1.00000         1.00000    
  15      1.00000         1.00000         1.00000         1.00000         1.00000         1.00000         1.00000         1.00000         1.00000         1.00000    

 CONCENTRATION WILL BE SAVED ON UNIT 1030 AT END OF TIME STEP   60, STRESS PERIOD    2


  MASS BUDGET FOR ENTIRE MODEL AT END OF TIME STEP   60, STRESS PERIOD   2
  ---------------------------------------------------------------------------------------------------

     CUMULATIVE MASS      M       RATES FOR THIS TIME STEP      M/T          PACKAGE NAME    
     ------------------                 ------------------------                     ----------------

           IN:                                      IN:
           ---                                      ---
     STORAGE-AQUEOUS =          12.2886       STORAGE-AQUEOUS =           2.0475     MST                              
                 RIV =           0.0000                   RIV =           0.0000     SSM_RIV-1                        
                 CHD =           0.0000                   CHD =           0.0000     SSM_CHD-1                        
                 CNC =           5.1220                   CNC =           0.8525     CNC_0                            

            TOTAL IN =          17.4106              TOTAL IN =           2.9000

          OUT:                                     OUT:
          ----                                     ----
     STORAGE-AQUEOUS =           5.3904       STORAGE-AQUEOUS =           0.8966     MST                              
                 RIV =           0.0000                   RIV =           0.0000     SSM_RIV-1                        
                 CHD =          11.5556                   CHD =           1.9260     SSM_CHD-1                        
                 CNC =           0.4646                   CNC =       7.7433E-02     CNC_0                            

           TOTAL OUT =          17.4106             TOTAL OUT =           2.9000

            IN - OUT =       8.8348E-10              IN - OUT =       4.8214E-10

 PERCENT DISCREPANCY =           0.00     PERCENT DISCREPANCY =           0.00




         TIME SUMMARY AT END OF TIME STEP   60 IN STRESS PERIOD    2
                    SECONDS     MINUTES      HOURS       DAYS        YEARS
                    -----------------------------------------------------------
   TIME STEP LENGTH  7200.0      120.00      2.0000     8.33333E-02 2.28154E-04
 STRESS PERIOD TIME 4.32000E+05  7200.0      120.00      5.0000     1.36893E-02
         TOTAL TIME 5.18400E+05  8640.0      144.00      6.0000     1.64271E-02


end timestep


start timestep kper="2" kstp="61" mode="normal"

 UBDSV1 SAVING  STORAGE-AQUEOUS ON UNIT   1029 AT TIME STEP     61, STRESS PERIOD      2
 UBDSV1 SAVING     FLOW-JA-FACE ON UNIT   1029 AT TIME STEP     61, STRESS PERIOD      2
 UBDSV06 SAVING  SOURCE-SINK MIX IN MODEL GWT_RIVERBASE    PACKAGE GWT_RIVERBASE   CONNECTED TO MODEL GWT_RIVERBASE    PACKAGE SSM              ON UNIT   1029 AT TIME STEP     61, STRESS PERIOD      2
 UBDSV06 SAVING              CNC IN MODEL GWT_RIVERBASE    PACKAGE GWT_RIVERBASE   CONNECTED TO MODEL GWT_RIVERBASE    PACKAGE CNC_0            ON UNIT   1029 AT TIME STEP     61, STRESS PERIOD      2
1
  CONCENTRATION IN LAYER   1 AT END OF TIME STEP  61 IN STRESS PERIOD    2
  ---------------------------------------------------------------------------

                1               2               3               4               5               6               7               8               9              10
 ................................................................................................................................................................
   1      1.00000         1.00000         1.00000         1.00000         1.00000         1.00000         1.00000         1.00000         1.00000         1.00000    
   2     0.999987         1.00000        0.999987         1.00000         1.00000         1.00000         1.00000         1.00000         1.00000         1.00000    
   3      1.00000        0.999987         1.00000         1.00000         1.00000         1.00000         1.00000         1.00000         1.00000         1.00000    
   4      1.00000         1.00000        0.999986         1.00000         1.00000         1.00000         1.00000         1.00000         1.00000         1.00000    
   5      1.00000         1.00002         1.00000        0.999986        0.999985         1.00000         1.00000         1.00000         1.00000         1.00000    
   6      1.00002         10.0000         1.00000        0.999985         1.00000        0.999985         1.00000         1.00000         1.00000         1.00000    
   7      1.00001         10.0000         1.00000         1.00000         1.00000         1.00000        0.999984         1.00000         1.00000         1.00000    
   8      1.00000         1.00001         1.00000         1.00000         1.00000         1.00000         1.00000        0.999984        0.999983         1.00000    
   9      1.00000         1.00000         1.00000         1.00000         1.00000         1.00000         1.00000        0.999984         1.00000         1.00000    
  10      1.00000         1.00000         1.00000         1.00000         1.00000         1.00000         1.00000         1.00000         1.00000         1.00000    
  11      1.00000         1.00000         1.00000         1.00000         1.00000         1.00000         1.00000         1.00000         1.00000         1.00000    
  12      1.00000         1.00000         1.00000         1.00000         1.00000         1.00000         1.00000         1.00000         1.00000         1.00000    
  13      1.00000         1.00000         1.00000         1.00000         1.00000         1.00000         1.00000         1.00000         1.00000         1.00000    
  14      1.00000         1.00000         1.00000         1.00000         1.00000         1.00000         1.00000         1.00000         1.00000         1.00000    
  15      1.00000         1.00000         1.00000         1.00000         1.00000         1.00000         1.00000         1.00000         1.00000         1.00000    
1
  CONCENTRATION IN LAYER   2 AT END OF TIME STEP  61 IN STRESS PERIOD    2
  ---------------------------------------------------------------------------

                1               2               3               4               5               6               7               8               9              10
 ................................................................................................................................................................
   1      1.00000         1.00000         1.00000         1.00000         1.00000         1.00000         1.00000         1.00000         1.00000         1.00000    
   2      1.00000         1.00000         1.00000         1.00000         1.00000         1.00000         1.00000         1.00000         1.00000         1.00000    
   3      1.00000         1.00000         1.00000         1.00000         1.00000         1.00000         1.00000         1.00000         1.00000         1.00000    
   4      1.00000         1.00000         1.00000         1.00000         1.00000         1.00000         1.00000         1.00000         1.00000         1.00000    
   5      1.00000         1.00000         1.00000         1.00000         1.00000         1.00000         1.00000         1.00000         1.00000         1.00000    
   6      1.00000         1.00001         1.00000         1.00000         1.00000         1.00000         1.00000         1.00000         1.00000         1.00000    
   7      1.00000         1.00000         1.00000         1.00000         1.00000         1.00000         1.00000         1.00000         1.00000         1.00000    
   8      1.00000         1.00000         1.00000         1.00000         1.00000         1.00000         1.00000         1.00000         1.00000         1.00000    
   9      1.00000         1.00000         1.00000         1.00000         1.00000         1.00000         1.00000         1.00000         1.00000         1.00000    
  10      1.00000         1.00000         1.00000         1.00000         1.00000         1.00000         1.00000         1.00000         1.00000         1.00000    
  11      1.00000         1.00000         1.00000         1.00000         1.00000         1.00000         1.00000         1.00000         1.00000         1.00000    
  12      1.00000         1.00000         1.00000         1.00000         1.00000         1.00000         1.00000         1.00000         1.00000         1.00000    
  13      1.00000         1.00000         1.00000         1.00000         1.00000         1.00000         1.00000         1.00000         1.00000         1.00000    
  14      1.00000         1.00000         1.00000         1.00000         1.00000         1.00000         1.00000         1.00000         1.00000         1.00000    
  15      1.00000         1.00000         1.00000         1.00000         1.00000         1.00000         1.00000         1.00000         1.00000         1.00000    
1
  CONCENTRATION IN LAYER   3 AT END OF TIME STEP  61 IN STRESS PERIOD    2
  ---------------------------------------------------------------------------

                1               2               3               4               5               6               7               8               9              10
 ................................................................................................................................................................
   1      1.00000         1.00000         1.00000         1.00000         1.00000         1.00000         1.00000         1.00000         1.00000         1.00000    
   2      1.00000         1.00000         1.00000         1.00000         1.00000         1.00000         1.00000         1.00000         1.00000         1.00000    
   3      1.00000         1.00000         1.00000         1.00000         1.00000         1.00000         1.00000         1.00000         1.00000         1.00000    
   4      1.00000         1.00000         1.00000         1.00000         1.00000         1.00000         1.00000         1.00000         1.00000         1.00000    
   5      1.00000         1.00000         1.00000         1.00000         1.00000         1.00000         1.00000         1.00000         1.00000         1.00000    
   6      1.00000         1.00000         1.00000         1.00000         1.00000         1.00000         1.00000         1.00000         1.00000         1.00000    
   7      1.00000         1.00000         1.00000         1.00000         1.00000         1.00000         1.00000         1.00000         1.00000         1.00000    
   8      1.00000         1.00000         1.00000         1.00000         1.00000         1.00000         1.00000         1.00000         1.00000         1.00000    
   9      1.00000         1.00000         1.00000         1.00000         1.00000         1.00000         1.00000         1.00000         1.00000         1.00000    
  10      1.00000         1.00000         1.00000         1.00000         1.00000         1.00000         1.00000         1.00000         1.00000         1.00000    
  11      1.00000         1.00000         1.00000         1.00000         1.00000         1.00000         1.00000         1.00000         1.00000         1.00000    
  12      1.00000         1.00000         1.00000         1.00000         1.00000         1.00000         1.00000         1.00000         1.00000         1.00000    
  13      1.00000         1.00000         1.00000         1.00000         1.00000         1.00000         1.00000         1.00000         1.00000         1.00000    
  14      1.00000         1.00000         1.00000         1.00000         1.00000         1.00000         1.00000         1.00000         1.00000         1.00000    
  15      1.00000         1.00000         1.00000         1.00000         1.00000         1.00000         1.00000         1.00000         1.00000         1.00000    

 CONCENTRATION WILL BE SAVED ON UNIT 1030 AT END OF TIME STEP   61, STRESS PERIOD    2


  MASS BUDGET FOR ENTIRE MODEL AT END OF TIME STEP   61, STRESS PERIOD   2
  ---------------------------------------------------------------------------------------------------

     CUMULATIVE MASS      M       RATES FOR THIS TIME STEP      M/T          PACKAGE NAME    
     ------------------                 ------------------------                     ----------------

           IN:                                      IN:
           ---                                      ---
     STORAGE-AQUEOUS =          12.4593       STORAGE-AQUEOUS =           2.0475     MST                              
                 RIV =           0.0000                   RIV =           0.0000     SSM_RIV-1                        
                 CHD =           0.0000                   CHD =           0.0000     SSM_CHD-1                        
                 CNC =           5.1930                   CNC =           0.8525     CNC_0                            

            TOTAL IN =          17.6523              TOTAL IN =           2.9000

          OUT:                                     OUT:
          ----                                     ----
     STORAGE-AQUEOUS =           5.4651       STORAGE-AQUEOUS =           0.8966     MST                              
                 RIV =           0.0000                   RIV =           0.0000     SSM_RIV-1                        
                 CHD =          11.7161                   CHD =           1.9260     SSM_CHD-1                        
                 CNC =           0.4711                   CNC =       7.7433E-02     CNC_0                            

           TOTAL OUT =          17.6523             TOTAL OUT =           2.9000

            IN - OUT =       9.6372E-10              IN - OUT =       9.6280E-10

 PERCENT DISCREPANCY =           0.00     PERCENT DISCREPANCY =           0.00




         TIME SUMMARY AT END OF TIME STEP   61 IN STRESS PERIOD    2
                    SECONDS     MINUTES      HOURS       DAYS        YEARS
                    -----------------------------------------------------------
   TIME STEP LENGTH  7200.0      120.00      2.0000     8.33333E-02 2.28154E-04
 STRESS PERIOD TIME 4.39200E+05  7320.0      122.00      5.0833     1.39174E-02
         TOTAL TIME 5.25600E+05  8760.0      146.00      6.0833     1.66553E-02


end timestep


start timestep kper="2" kstp="62" mode="normal"

 UBDSV1 SAVING  STORAGE-AQUEOUS ON UNIT   1029 AT TIME STEP     62, STRESS PERIOD      2
 UBDSV1 SAVING     FLOW-JA-FACE ON UNIT   1029 AT TIME STEP     62, STRESS PERIOD      2
 UBDSV06 SAVING  SOURCE-SINK MIX IN MODEL GWT_RIVERBASE    PACKAGE GWT_RIVERBASE   CONNECTED TO MODEL GWT_RIVERBASE    PACKAGE SSM              ON UNIT   1029 AT TIME STEP     62, STRESS PERIOD      2
 UBDSV06 SAVING              CNC IN MODEL GWT_RIVERBASE    PACKAGE GWT_RIVERBASE   CONNECTED TO MODEL GWT_RIVERBASE    PACKAGE CNC_0            ON UNIT   1029 AT TIME STEP     62, STRESS PERIOD      2
1
  CONCENTRATION IN LAYER   1 AT END OF TIME STEP  62 IN STRESS PERIOD    2
  ---------------------------------------------------------------------------

                1               2               3               4               5               6               7               8               9              10
 ................................................................................................................................................................
   1      1.00000         1.00000         1.00000         1.00000         1.00000         1.00000         1.00000         1.00000         1.00000         1.00000    
   2     0.999987         1.00000        0.999987         1.00000         1.00000         1.00000         1.00000         1.00000         1.00000         1.00000    
   3      1.00000        0.999986         1.00000         1.00000         1.00000         1.00000         1.00000         1.00000         1.00000         1.00000    
   4      1.00000         1.00000        0.999986         1.00000         1.00000         1.00000         1.00000         1.00000         1.00000         1.00000    
   5      1.00000         1.00002         1.00000        0.999986        0.999985         1.00000         1.00000         1.00000         1.00000         1.00000    
   6      1.00002         10.0000         1.00000        0.999985         1.00000        0.999985         1.00000         1.00000         1.00000         1.00000    
   7      1.00001         10.0000         1.00000         1.00000         1.00000         1.00000        0.999984         1.00000         1.00000         1.00000    
   8      1.00000         1.00001         1.00000         1.00000         1.00000         1.00000         1.00000        0.999984        0.999983         1.00000    
   9      1.00000         1.00000         1.00000         1.00000         1.00000         1.00000         1.00000        0.999983         1.00000         1.00000    
  10      1.00000         1.00000         1.00000         1.00000         1.00000         1.00000         1.00000         1.00000         1.00000         1.00000    
  11      1.00000         1.00000         1.00000         1.00000         1.00000         1.00000         1.00000         1.00000         1.00000         1.00000    
  12      1.00000         1.00000         1.00000         1.00000         1.00000         1.00000         1.00000         1.00000         1.00000         1.00000    
  13      1.00000         1.00000         1.00000         1.00000         1.00000         1.00000         1.00000         1.00000         1.00000         1.00000    
  14      1.00000         1.00000         1.00000         1.00000         1.00000         1.00000         1.00000         1.00000         1.00000         1.00000    
  15      1.00000         1.00000         1.00000         1.00000         1.00000         1.00000         1.00000         1.00000         1.00000         1.00000    
1
  CONCENTRATION IN LAYER   2 AT END OF TIME STEP  62 IN STRESS PERIOD    2
  ---------------------------------------------------------------------------

                1               2               3               4               5               6               7               8               9              10
 ................................................................................................................................................................
   1      1.00000         1.00000         1.00000         1.00000         1.00000         1.00000         1.00000         1.00000         1.00000         1.00000    
   2      1.00000         1.00000         1.00000         1.00000         1.00000         1.00000         1.00000         1.00000         1.00000         1.00000    
   3      1.00000         1.00000         1.00000         1.00000         1.00000         1.00000         1.00000         1.00000         1.00000         1.00000    
   4      1.00000         1.00000         1.00000         1.00000         1.00000         1.00000         1.00000         1.00000         1.00000         1.00000    
   5      1.00000         1.00000         1.00000         1.00000         1.00000         1.00000         1.00000         1.00000         1.00000         1.00000    
   6      1.00000         1.00001         1.00000         1.00000         1.00000         1.00000         1.00000         1.00000         1.00000         1.00000    
   7      1.00000         1.00000         1.00000         1.00000         1.00000         1.00000         1.00000         1.00000         1.00000         1.00000    
   8      1.00000         1.00000         1.00000         1.00000         1.00000         1.00000         1.00000         1.00000         1.00000         1.00000    
   9      1.00000         1.00000         1.00000         1.00000         1.00000         1.00000         1.00000         1.00000         1.00000         1.00000    
  10      1.00000         1.00000         1.00000         1.00000         1.00000         1.00000         1.00000         1.00000         1.00000         1.00000    
  11      1.00000         1.00000         1.00000         1.00000         1.00000         1.00000         1.00000         1.00000         1.00000         1.00000    
  12      1.00000         1.00000         1.00000         1.00000         1.00000         1.00000         1.00000         1.00000         1.00000         1.00000    
  13      1.00000         1.00000         1.00000         1.00000         1.00000         1.00000         1.00000         1.00000         1.00000         1.00000    
  14      1.00000         1.00000         1.00000         1.00000         1.00000         1.00000         1.00000         1.00000         1.00000         1.00000    
  15      1.00000         1.00000         1.00000         1.00000         1.00000         1.00000         1.00000         1.00000         1.00000         1.00000    
1
  CONCENTRATION IN LAYER   3 AT END OF TIME STEP  62 IN STRESS PERIOD    2
  ---------------------------------------------------------------------------

                1               2               3               4               5               6               7               8               9              10
 ................................................................................................................................................................
   1      1.00000         1.00000         1.00000         1.00000         1.00000         1.00000         1.00000         1.00000         1.00000         1.00000    
   2      1.00000         1.00000         1.00000         1.00000         1.00000         1.00000         1.00000         1.00000         1.00000         1.00000    
   3      1.00000         1.00000         1.00000         1.00000         1.00000         1.00000         1.00000         1.00000         1.00000         1.00000    
   4      1.00000         1.00000         1.00000         1.00000         1.00000         1.00000         1.00000         1.00000         1.00000         1.00000    
   5      1.00000         1.00000         1.00000         1.00000         1.00000         1.00000         1.00000         1.00000         1.00000         1.00000    
   6      1.00000         1.00000         1.00000         1.00000         1.00000         1.00000         1.00000         1.00000         1.00000         1.00000    
   7      1.00000         1.00000         1.00000         1.00000         1.00000         1.00000         1.00000         1.00000         1.00000         1.00000    
   8      1.00000         1.00000         1.00000         1.00000         1.00000         1.00000         1.00000         1.00000         1.00000         1.00000    
   9      1.00000         1.00000         1.00000         1.00000         1.00000         1.00000         1.00000         1.00000         1.00000         1.00000    
  10      1.00000         1.00000         1.00000         1.00000         1.00000         1.00000         1.00000         1.00000         1.00000         1.00000    
  11      1.00000         1.00000         1.00000         1.00000         1.00000         1.00000         1.00000         1.00000         1.00000         1.00000    
  12      1.00000         1.00000         1.00000         1.00000         1.00000         1.00000         1.00000         1.00000         1.00000         1.00000    
  13      1.00000         1.00000         1.00000         1.00000         1.00000         1.00000         1.00000         1.00000         1.00000         1.00000    
  14      1.00000         1.00000         1.00000         1.00000         1.00000         1.00000         1.00000         1.00000         1.00000         1.00000    
  15      1.00000         1.00000         1.00000         1.00000         1.00000         1.00000         1.00000         1.00000         1.00000         1.00000    

 CONCENTRATION WILL BE SAVED ON UNIT 1030 AT END OF TIME STEP   62, STRESS PERIOD    2


  MASS BUDGET FOR ENTIRE MODEL AT END OF TIME STEP   62, STRESS PERIOD   2
  ---------------------------------------------------------------------------------------------------

     CUMULATIVE MASS      M       RATES FOR THIS TIME STEP      M/T          PACKAGE NAME    
     ------------------                 ------------------------                     ----------------

           IN:                                      IN:
           ---                                      ---
     STORAGE-AQUEOUS =          12.6299       STORAGE-AQUEOUS =           2.0475     MST                              
                 RIV =           0.0000                   RIV =           0.0000     SSM_RIV-1                        
                 CHD =           0.0000                   CHD =           0.0000     SSM_CHD-1                        
                 CNC =           5.2641                   CNC =           0.8525     CNC_0                            

            TOTAL IN =          17.8940              TOTAL IN =           2.9000

          OUT:                                     OUT:
          ----                                     ----
     STORAGE-AQUEOUS =           5.5399       STORAGE-AQUEOUS =           0.8966     MST                              
                 RIV =           0.0000                   RIV =           0.0000     SSM_RIV-1                        
                 CHD =          11.8766                   CHD =           1.9260     SSM_CHD-1                        
                 CNC =           0.4775                   CNC =       7.7433E-02     CNC_0                            

           TOTAL OUT =          17.8940             TOTAL OUT =           2.9000

            IN - OUT =       1.1666E-09              IN - OUT =       2.4348E-09

 PERCENT DISCREPANCY =           0.00     PERCENT DISCREPANCY =           0.00




         TIME SUMMARY AT END OF TIME STEP   62 IN STRESS PERIOD    2
                    SECONDS     MINUTES      HOURS       DAYS        YEARS
                    -----------------------------------------------------------
   TIME STEP LENGTH  7200.0      120.00      2.0000     8.33333E-02 2.28154E-04
 STRESS PERIOD TIME 4.46400E+05  7440.0      124.00      5.1667     1.41456E-02
         TOTAL TIME 5.32800E+05  8880.0      148.00      6.1667     1.68834E-02


end timestep


start timestep kper="2" kstp="63" mode="normal"

 UBDSV1 SAVING  STORAGE-AQUEOUS ON UNIT   1029 AT TIME STEP     63, STRESS PERIOD      2
 UBDSV1 SAVING     FLOW-JA-FACE ON UNIT   1029 AT TIME STEP     63, STRESS PERIOD      2
 UBDSV06 SAVING  SOURCE-SINK MIX IN MODEL GWT_RIVERBASE    PACKAGE GWT_RIVERBASE   CONNECTED TO MODEL GWT_RIVERBASE    PACKAGE SSM              ON UNIT   1029 AT TIME STEP     63, STRESS PERIOD      2
 UBDSV06 SAVING              CNC IN MODEL GWT_RIVERBASE    PACKAGE GWT_RIVERBASE   CONNECTED TO MODEL GWT_RIVERBASE    PACKAGE CNC_0            ON UNIT   1029 AT TIME STEP     63, STRESS PERIOD      2
1
  CONCENTRATION IN LAYER   1 AT END OF TIME STEP  63 IN STRESS PERIOD    2
  ---------------------------------------------------------------------------

                1               2               3               4               5               6               7               8               9              10
 ................................................................................................................................................................
   1      1.00000         1.00000         1.00000         1.00000         1.00000         1.00000         1.00000         1.00000         1.00000         1.00000    
   2     0.999987         1.00000        0.999987         1.00000         1.00000         1.00000         1.00000         1.00000         1.00000         1.00000    
   3      1.00000        0.999986         1.00000         1.00000         1.00000         1.00000         1.00000         1.00000         1.00000         1.00000    
   4      1.00000         1.00000        0.999986         1.00000         1.00000         1.00000         1.00000         1.00000         1.00000         1.00000    
   5      1.00000         1.00002         1.00000        0.999986        0.999985         1.00000         1.00000         1.00000         1.00000         1.00000    
   6      1.00002         10.0000         1.00000        0.999985         1.00000        0.999984         1.00000         1.00000         1.00000         1.00000    
   7      1.00001         10.0000         1.00000         1.00000         1.00000         1.00000        0.999984         1.00000         1.00000         1.00000    
   8      1.00000         1.00001         1.00000         1.00000         1.00000         1.00000         1.00000        0.999983        0.999983         1.00000    
   9      1.00000         1.00000         1.00000         1.00000         1.00000         1.00000         1.00000        0.999983         1.00000         1.00000    
  10      1.00000         1.00000         1.00000         1.00000         1.00000         1.00000         1.00000         1.00000         1.00000         1.00000    
  11      1.00000         1.00000         1.00000         1.00000         1.00000         1.00000         1.00000         1.00000         1.00000         1.00000    
  12      1.00000         1.00000         1.00000         1.00000         1.00000         1.00000         1.00000         1.00000         1.00000         1.00000    
  13      1.00000         1.00000         1.00000         1.00000         1.00000         1.00000         1.00000         1.00000         1.00000         1.00000    
  14      1.00000         1.00000         1.00000         1.00000         1.00000         1.00000         1.00000         1.00000         1.00000         1.00000    
  15      1.00000         1.00000         1.00000         1.00000         1.00000         1.00000         1.00000         1.00000         1.00000         1.00000    
1
  CONCENTRATION IN LAYER   2 AT END OF TIME STEP  63 IN STRESS PERIOD    2
  ---------------------------------------------------------------------------

                1               2               3               4               5               6               7               8               9              10
 ................................................................................................................................................................
   1      1.00000         1.00000         1.00000         1.00000         1.00000         1.00000         1.00000         1.00000         1.00000         1.00000    
   2      1.00000         1.00000         1.00000         1.00000         1.00000         1.00000         1.00000         1.00000         1.00000         1.00000    
   3      1.00000         1.00000         1.00000         1.00000         1.00000         1.00000         1.00000         1.00000         1.00000         1.00000    
   4      1.00000         1.00000         1.00000         1.00000         1.00000         1.00000         1.00000         1.00000         1.00000         1.00000    
   5      1.00000         1.00000         1.00000         1.00000         1.00000         1.00000         1.00000         1.00000         1.00000         1.00000    
   6      1.00000         1.00001         1.00000         1.00000         1.00000         1.00000         1.00000         1.00000         1.00000         1.00000    
   7      1.00000         1.00000         1.00000         1.00000         1.00000         1.00000         1.00000         1.00000         1.00000         1.00000    
   8      1.00000         1.00000         1.00000         1.00000         1.00000         1.00000         1.00000         1.00000         1.00000         1.00000    
   9      1.00000         1.00000         1.00000         1.00000         1.00000         1.00000         1.00000         1.00000         1.00000         1.00000    
  10      1.00000         1.00000         1.00000         1.00000         1.00000         1.00000         1.00000         1.00000         1.00000         1.00000    
  11      1.00000         1.00000         1.00000         1.00000         1.00000         1.00000         1.00000         1.00000         1.00000         1.00000    
  12      1.00000         1.00000         1.00000         1.00000         1.00000         1.00000         1.00000         1.00000         1.00000         1.00000    
  13      1.00000         1.00000         1.00000         1.00000         1.00000         1.00000         1.00000         1.00000         1.00000         1.00000    
  14      1.00000         1.00000         1.00000         1.00000         1.00000         1.00000         1.00000         1.00000         1.00000         1.00000    
  15      1.00000         1.00000         1.00000         1.00000         1.00000         1.00000         1.00000         1.00000         1.00000         1.00000    
1
  CONCENTRATION IN LAYER   3 AT END OF TIME STEP  63 IN STRESS PERIOD    2
  ---------------------------------------------------------------------------

                1               2               3               4               5               6               7               8               9              10
 ................................................................................................................................................................
   1      1.00000         1.00000         1.00000         1.00000         1.00000         1.00000         1.00000         1.00000         1.00000         1.00000    
   2      1.00000         1.00000         1.00000         1.00000         1.00000         1.00000         1.00000         1.00000         1.00000         1.00000    
   3      1.00000         1.00000         1.00000         1.00000         1.00000         1.00000         1.00000         1.00000         1.00000         1.00000    
   4      1.00000         1.00000         1.00000         1.00000         1.00000         1.00000         1.00000         1.00000         1.00000         1.00000    
   5      1.00000         1.00000         1.00000         1.00000         1.00000         1.00000         1.00000         1.00000         1.00000         1.00000    
   6      1.00000         1.00000         1.00000         1.00000         1.00000         1.00000         1.00000         1.00000         1.00000         1.00000    
   7      1.00000         1.00000         1.00000         1.00000         1.00000         1.00000         1.00000         1.00000         1.00000         1.00000    
   8      1.00000         1.00000         1.00000         1.00000         1.00000         1.00000         1.00000         1.00000         1.00000         1.00000    
   9      1.00000         1.00000         1.00000         1.00000         1.00000         1.00000         1.00000         1.00000         1.00000         1.00000    
  10      1.00000         1.00000         1.00000         1.00000         1.00000         1.00000         1.00000         1.00000         1.00000         1.00000    
  11      1.00000         1.00000         1.00000         1.00000         1.00000         1.00000         1.00000         1.00000         1.00000         1.00000    
  12      1.00000         1.00000         1.00000         1.00000         1.00000         1.00000         1.00000         1.00000         1.00000         1.00000    
  13      1.00000         1.00000         1.00000         1.00000         1.00000         1.00000         1.00000         1.00000         1.00000         1.00000    
  14      1.00000         1.00000         1.00000         1.00000         1.00000         1.00000         1.00000         1.00000         1.00000         1.00000    
  15      1.00000         1.00000         1.00000         1.00000         1.00000         1.00000         1.00000         1.00000         1.00000         1.00000    

 CONCENTRATION WILL BE SAVED ON UNIT 1030 AT END OF TIME STEP   63, STRESS PERIOD    2


  MASS BUDGET FOR ENTIRE MODEL AT END OF TIME STEP   63, STRESS PERIOD   2
  ---------------------------------------------------------------------------------------------------

     CUMULATIVE MASS      M       RATES FOR THIS TIME STEP      M/T          PACKAGE NAME    
     ------------------                 ------------------------                     ----------------

           IN:                                      IN:
           ---                                      ---
     STORAGE-AQUEOUS =          12.8005       STORAGE-AQUEOUS =           2.0475     MST                              
                 RIV =           0.0000                   RIV =           0.0000     SSM_RIV-1                        
                 CHD =           0.0000                   CHD =           0.0000     SSM_CHD-1                        
                 CNC =           5.3351                   CNC =           0.8525     CNC_0                            

            TOTAL IN =          18.1356              TOTAL IN =           2.9000

          OUT:                                     OUT:
          ----                                     ----
     STORAGE-AQUEOUS =           5.6146       STORAGE-AQUEOUS =           0.8966     MST                              
                 RIV =           0.0000                   RIV =           0.0000     SSM_RIV-1                        
                 CHD =          12.0371                   CHD =           1.9260     SSM_CHD-1                        
                 CNC =           0.4840                   CNC =       7.7433E-02     CNC_0                            

           TOTAL OUT =          18.1356             TOTAL OUT =           2.9000

            IN - OUT =       1.1217E-09              IN - OUT =      -5.3944E-10

 PERCENT DISCREPANCY =           0.00     PERCENT DISCREPANCY =          -0.00




         TIME SUMMARY AT END OF TIME STEP   63 IN STRESS PERIOD    2
                    SECONDS     MINUTES      HOURS       DAYS        YEARS
                    -----------------------------------------------------------
   TIME STEP LENGTH  7200.0      120.00      2.0000     8.33333E-02 2.28154E-04
 STRESS PERIOD TIME 4.53600E+05  7560.0      126.00      5.2500     1.43737E-02
         TOTAL TIME 5.40000E+05  9000.0      150.00      6.2500     1.71116E-02


end timestep


start timestep kper="2" kstp="64" mode="normal"

 UBDSV1 SAVING  STORAGE-AQUEOUS ON UNIT   1029 AT TIME STEP     64, STRESS PERIOD      2
 UBDSV1 SAVING     FLOW-JA-FACE ON UNIT   1029 AT TIME STEP     64, STRESS PERIOD      2
 UBDSV06 SAVING  SOURCE-SINK MIX IN MODEL GWT_RIVERBASE    PACKAGE GWT_RIVERBASE   CONNECTED TO MODEL GWT_RIVERBASE    PACKAGE SSM              ON UNIT   1029 AT TIME STEP     64, STRESS PERIOD      2
 UBDSV06 SAVING              CNC IN MODEL GWT_RIVERBASE    PACKAGE GWT_RIVERBASE   CONNECTED TO MODEL GWT_RIVERBASE    PACKAGE CNC_0            ON UNIT   1029 AT TIME STEP     64, STRESS PERIOD      2
1
  CONCENTRATION IN LAYER   1 AT END OF TIME STEP  64 IN STRESS PERIOD    2
  ---------------------------------------------------------------------------

                1               2               3               4               5               6               7               8               9              10
 ................................................................................................................................................................
   1      1.00000         1.00000         1.00000         1.00000         1.00000         1.00000         1.00000         1.00000         1.00000         1.00000    
   2     0.999987         1.00000        0.999986         1.00000         1.00000         1.00000         1.00000         1.00000         1.00000         1.00000    
   3      1.00000        0.999986         1.00000         1.00000         1.00000         1.00000         1.00000         1.00000         1.00000         1.00000    
   4      1.00000         1.00000        0.999986         1.00000         1.00000         1.00000         1.00000         1.00000         1.00000         1.00000    
   5      1.00000         1.00002         1.00000        0.999985        0.999984         1.00000         1.00000         1.00000         1.00000         1.00000    
   6      1.00002         10.0000         1.00000        0.999985         1.00000        0.999984         1.00000         1.00000         1.00000         1.00000    
   7      1.00001         10.0000         1.00000         1.00000         1.00000         1.00000        0.999984         1.00000         1.00000         1.00000    
   8      1.00000         1.00001         1.00000         1.00000         1.00000         1.00000         1.00000        0.999983        0.999982         1.00000    
   9      1.00000         1.00000         1.00000         1.00000         1.00000         1.00000         1.00000        0.999983         1.00000         1.00000    
  10      1.00000         1.00000         1.00000         1.00000         1.00000         1.00000         1.00000         1.00000         1.00000         1.00000    
  11      1.00000         1.00000         1.00000         1.00000         1.00000         1.00000         1.00000         1.00000         1.00000         1.00000    
  12      1.00000         1.00000         1.00000         1.00000         1.00000         1.00000         1.00000         1.00000         1.00000         1.00000    
  13      1.00000         1.00000         1.00000         1.00000         1.00000         1.00000         1.00000         1.00000         1.00000         1.00000    
  14      1.00000         1.00000         1.00000         1.00000         1.00000         1.00000         1.00000         1.00000         1.00000         1.00000    
  15      1.00000         1.00000         1.00000         1.00000         1.00000         1.00000         1.00000         1.00000         1.00000         1.00000    
1
  CONCENTRATION IN LAYER   2 AT END OF TIME STEP  64 IN STRESS PERIOD    2
  ---------------------------------------------------------------------------

                1               2               3               4               5               6               7               8               9              10
 ................................................................................................................................................................
   1      1.00000         1.00000         1.00000         1.00000         1.00000         1.00000         1.00000         1.00000         1.00000         1.00000    
   2      1.00000         1.00000         1.00000         1.00000         1.00000         1.00000         1.00000         1.00000         1.00000         1.00000    
   3      1.00000         1.00000         1.00000         1.00000         1.00000         1.00000         1.00000         1.00000         1.00000         1.00000    
   4      1.00000         1.00000         1.00000         1.00000         1.00000         1.00000         1.00000         1.00000         1.00000         1.00000    
   5      1.00000         1.00000         1.00000         1.00000         1.00000         1.00000         1.00000         1.00000         1.00000         1.00000    
   6      1.00000         1.00001         1.00000         1.00000         1.00000         1.00000         1.00000         1.00000         1.00000         1.00000    
   7      1.00000         1.00000         1.00000         1.00000         1.00000         1.00000         1.00000         1.00000         1.00000         1.00000    
   8      1.00000         1.00000         1.00000         1.00000         1.00000         1.00000         1.00000         1.00000         1.00000         1.00000    
   9      1.00000         1.00000         1.00000         1.00000         1.00000         1.00000         1.00000         1.00000         1.00000         1.00000    
  10      1.00000         1.00000         1.00000         1.00000         1.00000         1.00000         1.00000         1.00000         1.00000         1.00000    
  11      1.00000         1.00000         1.00000         1.00000         1.00000         1.00000         1.00000         1.00000         1.00000         1.00000    
  12      1.00000         1.00000         1.00000         1.00000         1.00000         1.00000         1.00000         1.00000         1.00000         1.00000    
  13      1.00000         1.00000         1.00000         1.00000         1.00000         1.00000         1.00000         1.00000         1.00000         1.00000    
  14      1.00000         1.00000         1.00000         1.00000         1.00000         1.00000         1.00000         1.00000         1.00000         1.00000    
  15      1.00000         1.00000         1.00000         1.00000         1.00000         1.00000         1.00000         1.00000         1.00000         1.00000    
1
  CONCENTRATION IN LAYER   3 AT END OF TIME STEP  64 IN STRESS PERIOD    2
  ---------------------------------------------------------------------------

                1               2               3               4               5               6               7               8               9              10
 ................................................................................................................................................................
   1      1.00000         1.00000         1.00000         1.00000         1.00000         1.00000         1.00000         1.00000         1.00000         1.00000    
   2      1.00000         1.00000         1.00000         1.00000         1.00000         1.00000         1.00000         1.00000         1.00000         1.00000    
   3      1.00000         1.00000         1.00000         1.00000         1.00000         1.00000         1.00000         1.00000         1.00000         1.00000    
   4      1.00000         1.00000         1.00000         1.00000         1.00000         1.00000         1.00000         1.00000         1.00000         1.00000    
   5      1.00000         1.00000         1.00000         1.00000         1.00000         1.00000         1.00000         1.00000         1.00000         1.00000    
   6      1.00000         1.00000         1.00000         1.00000         1.00000         1.00000         1.00000         1.00000         1.00000         1.00000    
   7      1.00000         1.00000         1.00000         1.00000         1.00000         1.00000         1.00000         1.00000         1.00000         1.00000    
   8      1.00000         1.00000         1.00000         1.00000         1.00000         1.00000         1.00000         1.00000         1.00000         1.00000    
   9      1.00000         1.00000         1.00000         1.00000         1.00000         1.00000         1.00000         1.00000         1.00000         1.00000    
  10      1.00000         1.00000         1.00000         1.00000         1.00000         1.00000         1.00000         1.00000         1.00000         1.00000    
  11      1.00000         1.00000         1.00000         1.00000         1.00000         1.00000         1.00000         1.00000         1.00000         1.00000    
  12      1.00000         1.00000         1.00000         1.00000         1.00000         1.00000         1.00000         1.00000         1.00000         1.00000    
  13      1.00000         1.00000         1.00000         1.00000         1.00000         1.00000         1.00000         1.00000         1.00000         1.00000    
  14      1.00000         1.00000         1.00000         1.00000         1.00000         1.00000         1.00000         1.00000         1.00000         1.00000    
  15      1.00000         1.00000         1.00000         1.00000         1.00000         1.00000         1.00000         1.00000         1.00000         1.00000    

 CONCENTRATION WILL BE SAVED ON UNIT 1030 AT END OF TIME STEP   64, STRESS PERIOD    2


  MASS BUDGET FOR ENTIRE MODEL AT END OF TIME STEP   64, STRESS PERIOD   2
  ---------------------------------------------------------------------------------------------------

     CUMULATIVE MASS      M       RATES FOR THIS TIME STEP      M/T          PACKAGE NAME    
     ------------------                 ------------------------                     ----------------

           IN:                                      IN:
           ---                                      ---
     STORAGE-AQUEOUS =          12.9711       STORAGE-AQUEOUS =           2.0475     MST                              
                 RIV =           0.0000                   RIV =           0.0000     SSM_RIV-1                        
                 CHD =           0.0000                   CHD =           0.0000     SSM_CHD-1                        
                 CNC =           5.4062                   CNC =           0.8525     CNC_0                            

            TOTAL IN =          18.3773              TOTAL IN =           2.9000

          OUT:                                     OUT:
          ----                                     ----
     STORAGE-AQUEOUS =           5.6893       STORAGE-AQUEOUS =           0.8966     MST                              
                 RIV =           0.0000                   RIV =           0.0000     SSM_RIV-1                        
                 CHD =          12.1976                   CHD =           1.9260     SSM_CHD-1                        
                 CNC =           0.4904                   CNC =       7.7433E-02     CNC_0                            

           TOTAL OUT =          18.3773             TOTAL OUT =           2.9000

            IN - OUT =       1.1231E-09              IN - OUT =       1.6809E-11

 PERCENT DISCREPANCY =           0.00     PERCENT DISCREPANCY =           0.00




         TIME SUMMARY AT END OF TIME STEP   64 IN STRESS PERIOD    2
                    SECONDS     MINUTES      HOURS       DAYS        YEARS
                    -----------------------------------------------------------
   TIME STEP LENGTH  7200.0      120.00      2.0000     8.33333E-02 2.28154E-04
 STRESS PERIOD TIME 4.60800E+05  7680.0      128.00      5.3333     1.46019E-02
         TOTAL TIME 5.47200E+05  9120.0      152.00      6.3333     1.73397E-02


end timestep


start timestep kper="2" kstp="65" mode="normal"

 UBDSV1 SAVING  STORAGE-AQUEOUS ON UNIT   1029 AT TIME STEP     65, STRESS PERIOD      2
 UBDSV1 SAVING     FLOW-JA-FACE ON UNIT   1029 AT TIME STEP     65, STRESS PERIOD      2
 UBDSV06 SAVING  SOURCE-SINK MIX IN MODEL GWT_RIVERBASE    PACKAGE GWT_RIVERBASE   CONNECTED TO MODEL GWT_RIVERBASE    PACKAGE SSM              ON UNIT   1029 AT TIME STEP     65, STRESS PERIOD      2
 UBDSV06 SAVING              CNC IN MODEL GWT_RIVERBASE    PACKAGE GWT_RIVERBASE   CONNECTED TO MODEL GWT_RIVERBASE    PACKAGE CNC_0            ON UNIT   1029 AT TIME STEP     65, STRESS PERIOD      2
1
  CONCENTRATION IN LAYER   1 AT END OF TIME STEP  65 IN STRESS PERIOD    2
  ---------------------------------------------------------------------------

                1               2               3               4               5               6               7               8               9              10
 ................................................................................................................................................................
   1      1.00000         1.00000         1.00000         1.00000         1.00000         1.00000         1.00000         1.00000         1.00000         1.00000    
   2     0.999986         1.00000        0.999986         1.00000         1.00000         1.00000         1.00000         1.00000         1.00000         1.00000    
   3      1.00000        0.999986         1.00000         1.00000         1.00000         1.00000         1.00000         1.00000         1.00000         1.00000    
   4      1.00000         1.00000        0.999985         1.00000         1.00000         1.00000         1.00000         1.00000         1.00000         1.00000    
   5      1.00000         1.00002         1.00000        0.999985        0.999984         1.00000         1.00000         1.00000         1.00000         1.00000    
   6      1.00002         10.0000         1.00000        0.999985         1.00000        0.999984         1.00000         1.00000         1.00000         1.00000    
   7      1.00001         10.0000         1.00000         1.00000         1.00000         1.00000        0.999983         1.00000         1.00000         1.00000    
   8      1.00000         1.00002         1.00000         1.00000         1.00000         1.00000         1.00000        0.999983        0.999982         1.00000    
   9      1.00000         1.00000         1.00000         1.00000         1.00000         1.00000         1.00000        0.999983         1.00000         1.00000    
  10      1.00000         1.00000         1.00000         1.00000         1.00000         1.00000         1.00000         1.00000         1.00000         1.00000    
  11      1.00000         1.00000         1.00000         1.00000         1.00000         1.00000         1.00000         1.00000         1.00000         1.00000    
  12      1.00000         1.00000         1.00000         1.00000         1.00000         1.00000         1.00000         1.00000         1.00000         1.00000    
  13      1.00000         1.00000         1.00000         1.00000         1.00000         1.00000         1.00000         1.00000         1.00000         1.00000    
  14      1.00000         1.00000         1.00000         1.00000         1.00000         1.00000         1.00000         1.00000         1.00000         1.00000    
  15      1.00000         1.00000         1.00000         1.00000         1.00000         1.00000         1.00000         1.00000         1.00000         1.00000    
1
  CONCENTRATION IN LAYER   2 AT END OF TIME STEP  65 IN STRESS PERIOD    2
  ---------------------------------------------------------------------------

                1               2               3               4               5               6               7               8               9              10
 ................................................................................................................................................................
   1      1.00000         1.00000         1.00000         1.00000         1.00000         1.00000         1.00000         1.00000         1.00000         1.00000    
   2      1.00000         1.00000         1.00000         1.00000         1.00000         1.00000         1.00000         1.00000         1.00000         1.00000    
   3      1.00000         1.00000         1.00000         1.00000         1.00000         1.00000         1.00000         1.00000         1.00000         1.00000    
   4      1.00000         1.00000         1.00000         1.00000         1.00000         1.00000         1.00000         1.00000         1.00000         1.00000    
   5      1.00000         1.00000         1.00000         1.00000         1.00000         1.00000         1.00000         1.00000         1.00000         1.00000    
   6      1.00000         1.00001         1.00000         1.00000         1.00000         1.00000         1.00000         1.00000         1.00000         1.00000    
   7      1.00000         1.00000         1.00000         1.00000         1.00000         1.00000         1.00000         1.00000         1.00000         1.00000    
   8      1.00000         1.00000         1.00000         1.00000         1.00000         1.00000         1.00000         1.00000         1.00000         1.00000    
   9      1.00000         1.00000         1.00000         1.00000         1.00000         1.00000         1.00000         1.00000         1.00000         1.00000    
  10      1.00000         1.00000         1.00000         1.00000         1.00000         1.00000         1.00000         1.00000         1.00000         1.00000    
  11      1.00000         1.00000         1.00000         1.00000         1.00000         1.00000         1.00000         1.00000         1.00000         1.00000    
  12      1.00000         1.00000         1.00000         1.00000         1.00000         1.00000         1.00000         1.00000         1.00000         1.00000    
  13      1.00000         1.00000         1.00000         1.00000         1.00000         1.00000         1.00000         1.00000         1.00000         1.00000    
  14      1.00000         1.00000         1.00000         1.00000         1.00000         1.00000         1.00000         1.00000         1.00000         1.00000    
  15      1.00000         1.00000         1.00000         1.00000         1.00000         1.00000         1.00000         1.00000         1.00000         1.00000    
1
  CONCENTRATION IN LAYER   3 AT END OF TIME STEP  65 IN STRESS PERIOD    2
  ---------------------------------------------------------------------------

                1               2               3               4               5               6               7               8               9              10
 ................................................................................................................................................................
   1      1.00000         1.00000         1.00000         1.00000         1.00000         1.00000         1.00000         1.00000         1.00000         1.00000    
   2      1.00000         1.00000         1.00000         1.00000         1.00000         1.00000         1.00000         1.00000         1.00000         1.00000    
   3      1.00000         1.00000         1.00000         1.00000         1.00000         1.00000         1.00000         1.00000         1.00000         1.00000    
   4      1.00000         1.00000         1.00000         1.00000         1.00000         1.00000         1.00000         1.00000         1.00000         1.00000    
   5      1.00000         1.00000         1.00000         1.00000         1.00000         1.00000         1.00000         1.00000         1.00000         1.00000    
   6      1.00000         1.00000         1.00000         1.00000         1.00000         1.00000         1.00000         1.00000         1.00000         1.00000    
   7      1.00000         1.00000         1.00000         1.00000         1.00000         1.00000         1.00000         1.00000         1.00000         1.00000    
   8      1.00000         1.00000         1.00000         1.00000         1.00000         1.00000         1.00000         1.00000         1.00000         1.00000    
   9      1.00000         1.00000         1.00000         1.00000         1.00000         1.00000         1.00000         1.00000         1.00000         1.00000    
  10      1.00000         1.00000         1.00000         1.00000         1.00000         1.00000         1.00000         1.00000         1.00000         1.00000    
  11      1.00000         1.00000         1.00000         1.00000         1.00000         1.00000         1.00000         1.00000         1.00000         1.00000    
  12      1.00000         1.00000         1.00000         1.00000         1.00000         1.00000         1.00000         1.00000         1.00000         1.00000    
  13      1.00000         1.00000         1.00000         1.00000         1.00000         1.00000         1.00000         1.00000         1.00000         1.00000    
  14      1.00000         1.00000         1.00000         1.00000         1.00000         1.00000         1.00000         1.00000         1.00000         1.00000    
  15      1.00000         1.00000         1.00000         1.00000         1.00000         1.00000         1.00000         1.00000         1.00000         1.00000    

 CONCENTRATION WILL BE SAVED ON UNIT 1030 AT END OF TIME STEP   65, STRESS PERIOD    2


  MASS BUDGET FOR ENTIRE MODEL AT END OF TIME STEP   65, STRESS PERIOD   2
  ---------------------------------------------------------------------------------------------------

     CUMULATIVE MASS      M       RATES FOR THIS TIME STEP      M/T          PACKAGE NAME    
     ------------------                 ------------------------                     ----------------

           IN:                                      IN:
           ---                                      ---
     STORAGE-AQUEOUS =          13.1418       STORAGE-AQUEOUS =           2.0475     MST                              
                 RIV =           0.0000                   RIV =           0.0000     SSM_RIV-1                        
                 CHD =           0.0000                   CHD =           0.0000     SSM_CHD-1                        
                 CNC =           5.4772                   CNC =           0.8525     CNC_0                            

            TOTAL IN =          18.6190              TOTAL IN =           2.9000

          OUT:                                     OUT:
          ----                                     ----
     STORAGE-AQUEOUS =           5.7640       STORAGE-AQUEOUS =           0.8966     MST                              
                 RIV =           0.0000                   RIV =           0.0000     SSM_RIV-1                        
                 CHD =          12.3581                   CHD =           1.9260     SSM_CHD-1                        
                 CNC =           0.4969                   CNC =       7.7433E-02     CNC_0                            

           TOTAL OUT =          18.6190             TOTAL OUT =           2.9000

            IN - OUT =       1.1500E-09              IN - OUT =       3.2338E-10

 PERCENT DISCREPANCY =           0.00     PERCENT DISCREPANCY =           0.00




         TIME SUMMARY AT END OF TIME STEP   65 IN STRESS PERIOD    2
                    SECONDS     MINUTES      HOURS       DAYS        YEARS
                    -----------------------------------------------------------
   TIME STEP LENGTH  7200.0      120.00      2.0000     8.33333E-02 2.28154E-04
 STRESS PERIOD TIME 4.68000E+05  7800.0      130.00      5.4167     1.48300E-02
         TOTAL TIME 5.54400E+05  9240.0      154.00      6.4167     1.75679E-02


end timestep


start timestep kper="2" kstp="66" mode="normal"

 UBDSV1 SAVING  STORAGE-AQUEOUS ON UNIT   1029 AT TIME STEP     66, STRESS PERIOD      2
 UBDSV1 SAVING     FLOW-JA-FACE ON UNIT   1029 AT TIME STEP     66, STRESS PERIOD      2
 UBDSV06 SAVING  SOURCE-SINK MIX IN MODEL GWT_RIVERBASE    PACKAGE GWT_RIVERBASE   CONNECTED TO MODEL GWT_RIVERBASE    PACKAGE SSM              ON UNIT   1029 AT TIME STEP     66, STRESS PERIOD      2
 UBDSV06 SAVING              CNC IN MODEL GWT_RIVERBASE    PACKAGE GWT_RIVERBASE   CONNECTED TO MODEL GWT_RIVERBASE    PACKAGE CNC_0            ON UNIT   1029 AT TIME STEP     66, STRESS PERIOD      2
1
  CONCENTRATION IN LAYER   1 AT END OF TIME STEP  66 IN STRESS PERIOD    2
  ---------------------------------------------------------------------------

                1               2               3               4               5               6               7               8               9              10
 ................................................................................................................................................................
   1      1.00000         1.00000         1.00000         1.00000         1.00000         1.00000         1.00000         1.00000         1.00000         1.00000    
   2     0.999986         1.00000        0.999986         1.00000         1.00000         1.00000         1.00000         1.00000         1.00000         1.00000    
   3      1.00000        0.999986         1.00000         1.00000         1.00000         1.00000         1.00000         1.00000         1.00000         1.00000    
   4      1.00000         1.00000        0.999985         1.00000         1.00000         1.00000         1.00000         1.00000         1.00000         1.00000    
   5      1.00000         1.00002         1.00000        0.999985        0.999984         1.00000         1.00000         1.00000         1.00000         1.00000    
   6      1.00002         10.0000         1.00000        0.999985         1.00000        0.999984         1.00000         1.00000         1.00000         1.00000    
   7      1.00001         10.0000         1.00000         1.00000         1.00000         1.00000        0.999983         1.00000         1.00000         1.00000    
   8      1.00000         1.00002         1.00000         1.00000         1.00000         1.00000         1.00000        0.999983        0.999982         1.00000    
   9      1.00000         1.00000         1.00000         1.00000         1.00000         1.00000         1.00000        0.999982         1.00000         1.00000    
  10      1.00000         1.00000         1.00000         1.00000         1.00000         1.00000         1.00000         1.00000         1.00000         1.00000    
  11      1.00000         1.00000         1.00000         1.00000         1.00000         1.00000         1.00000         1.00000         1.00000         1.00000    
  12      1.00000         1.00000         1.00000         1.00000         1.00000         1.00000         1.00000         1.00000         1.00000         1.00000    
  13      1.00000         1.00000         1.00000         1.00000         1.00000         1.00000         1.00000         1.00000         1.00000         1.00000    
  14      1.00000         1.00000         1.00000         1.00000         1.00000         1.00000         1.00000         1.00000         1.00000         1.00000    
  15      1.00000         1.00000         1.00000         1.00000         1.00000         1.00000         1.00000         1.00000         1.00000         1.00000    
1
  CONCENTRATION IN LAYER   2 AT END OF TIME STEP  66 IN STRESS PERIOD    2
  ---------------------------------------------------------------------------

                1               2               3               4               5               6               7               8               9              10
 ................................................................................................................................................................
   1      1.00000         1.00000         1.00000         1.00000         1.00000         1.00000         1.00000         1.00000         1.00000         1.00000    
   2      1.00000         1.00000         1.00000         1.00000         1.00000         1.00000         1.00000         1.00000         1.00000         1.00000    
   3      1.00000         1.00000         1.00000         1.00000         1.00000         1.00000         1.00000         1.00000         1.00000         1.00000    
   4      1.00000         1.00000         1.00000         1.00000         1.00000         1.00000         1.00000         1.00000         1.00000         1.00000    
   5      1.00000         1.00000         1.00000         1.00000         1.00000         1.00000         1.00000         1.00000         1.00000         1.00000    
   6      1.00000         1.00001         1.00000         1.00000         1.00000         1.00000         1.00000         1.00000         1.00000         1.00000    
   7      1.00000         1.00000         1.00000         1.00000         1.00000         1.00000         1.00000         1.00000         1.00000         1.00000    
   8      1.00000         1.00000         1.00000         1.00000         1.00000         1.00000         1.00000         1.00000         1.00000         1.00000    
   9      1.00000         1.00000         1.00000         1.00000         1.00000         1.00000         1.00000         1.00000         1.00000         1.00000    
  10      1.00000         1.00000         1.00000         1.00000         1.00000         1.00000         1.00000         1.00000         1.00000         1.00000    
  11      1.00000         1.00000         1.00000         1.00000         1.00000         1.00000         1.00000         1.00000         1.00000         1.00000    
  12      1.00000         1.00000         1.00000         1.00000         1.00000         1.00000         1.00000         1.00000         1.00000         1.00000    
  13      1.00000         1.00000         1.00000         1.00000         1.00000         1.00000         1.00000         1.00000         1.00000         1.00000    
  14      1.00000         1.00000         1.00000         1.00000         1.00000         1.00000         1.00000         1.00000         1.00000         1.00000    
  15      1.00000         1.00000         1.00000         1.00000         1.00000         1.00000         1.00000         1.00000         1.00000         1.00000    
1
  CONCENTRATION IN LAYER   3 AT END OF TIME STEP  66 IN STRESS PERIOD    2
  ---------------------------------------------------------------------------

                1               2               3               4               5               6               7               8               9              10
 ................................................................................................................................................................
   1      1.00000         1.00000         1.00000         1.00000         1.00000         1.00000         1.00000         1.00000         1.00000         1.00000    
   2      1.00000         1.00000         1.00000         1.00000         1.00000         1.00000         1.00000         1.00000         1.00000         1.00000    
   3      1.00000         1.00000         1.00000         1.00000         1.00000         1.00000         1.00000         1.00000         1.00000         1.00000    
   4      1.00000         1.00000         1.00000         1.00000         1.00000         1.00000         1.00000         1.00000         1.00000         1.00000    
   5      1.00000         1.00000         1.00000         1.00000         1.00000         1.00000         1.00000         1.00000         1.00000         1.00000    
   6      1.00000         1.00000         1.00000         1.00000         1.00000         1.00000         1.00000         1.00000         1.00000         1.00000    
   7      1.00000         1.00000         1.00000         1.00000         1.00000         1.00000         1.00000         1.00000         1.00000         1.00000    
   8      1.00000         1.00000         1.00000         1.00000         1.00000         1.00000         1.00000         1.00000         1.00000         1.00000    
   9      1.00000         1.00000         1.00000         1.00000         1.00000         1.00000         1.00000         1.00000         1.00000         1.00000    
  10      1.00000         1.00000         1.00000         1.00000         1.00000         1.00000         1.00000         1.00000         1.00000         1.00000    
  11      1.00000         1.00000         1.00000         1.00000         1.00000         1.00000         1.00000         1.00000         1.00000         1.00000    
  12      1.00000         1.00000         1.00000         1.00000         1.00000         1.00000         1.00000         1.00000         1.00000         1.00000    
  13      1.00000         1.00000         1.00000         1.00000         1.00000         1.00000         1.00000         1.00000         1.00000         1.00000    
  14      1.00000         1.00000         1.00000         1.00000         1.00000         1.00000         1.00000         1.00000         1.00000         1.00000    
  15      1.00000         1.00000         1.00000         1.00000         1.00000         1.00000         1.00000         1.00000         1.00000         1.00000    

 CONCENTRATION WILL BE SAVED ON UNIT 1030 AT END OF TIME STEP   66, STRESS PERIOD    2


  MASS BUDGET FOR ENTIRE MODEL AT END OF TIME STEP   66, STRESS PERIOD   2
  ---------------------------------------------------------------------------------------------------

     CUMULATIVE MASS      M       RATES FOR THIS TIME STEP      M/T          PACKAGE NAME    
     ------------------                 ------------------------                     ----------------

           IN:                                      IN:
           ---                                      ---
     STORAGE-AQUEOUS =          13.3124       STORAGE-AQUEOUS =           2.0475     MST                              
                 RIV =           0.0000                   RIV =           0.0000     SSM_RIV-1                        
                 CHD =           0.0000                   CHD =           0.0000     SSM_CHD-1                        
                 CNC =           5.5483                   CNC =           0.8525     CNC_0                            

            TOTAL IN =          18.8606              TOTAL IN =           2.9000

          OUT:                                     OUT:
          ----                                     ----
     STORAGE-AQUEOUS =           5.8387       STORAGE-AQUEOUS =           0.8966     MST                              
                 RIV =           0.0000                   RIV =           0.0000     SSM_RIV-1                        
                 CHD =          12.5186                   CHD =           1.9260     SSM_CHD-1                        
                 CNC =           0.5033                   CNC =       7.7433E-02     CNC_0                            

           TOTAL OUT =          18.8606             TOTAL OUT =           2.9000

            IN - OUT =       1.3784E-09              IN - OUT =       2.7409E-09

 PERCENT DISCREPANCY =           0.00     PERCENT DISCREPANCY =           0.00




         TIME SUMMARY AT END OF TIME STEP   66 IN STRESS PERIOD    2
                    SECONDS     MINUTES      HOURS       DAYS        YEARS
                    -----------------------------------------------------------
   TIME STEP LENGTH  7200.0      120.00      2.0000     8.33333E-02 2.28154E-04
 STRESS PERIOD TIME 4.75200E+05  7920.0      132.00      5.5000     1.50582E-02
         TOTAL TIME 5.61600E+05  9360.0      156.00      6.5000     1.77960E-02


end timestep


start timestep kper="2" kstp="67" mode="normal"

 UBDSV1 SAVING  STORAGE-AQUEOUS ON UNIT   1029 AT TIME STEP     67, STRESS PERIOD      2
 UBDSV1 SAVING     FLOW-JA-FACE ON UNIT   1029 AT TIME STEP     67, STRESS PERIOD      2
 UBDSV06 SAVING  SOURCE-SINK MIX IN MODEL GWT_RIVERBASE    PACKAGE GWT_RIVERBASE   CONNECTED TO MODEL GWT_RIVERBASE    PACKAGE SSM              ON UNIT   1029 AT TIME STEP     67, STRESS PERIOD      2
 UBDSV06 SAVING              CNC IN MODEL GWT_RIVERBASE    PACKAGE GWT_RIVERBASE   CONNECTED TO MODEL GWT_RIVERBASE    PACKAGE CNC_0            ON UNIT   1029 AT TIME STEP     67, STRESS PERIOD      2
1
  CONCENTRATION IN LAYER   1 AT END OF TIME STEP  67 IN STRESS PERIOD    2
  ---------------------------------------------------------------------------

                1               2               3               4               5               6               7               8               9              10
 ................................................................................................................................................................
   1      1.00000         1.00000         1.00000         1.00000         1.00000         1.00000         1.00000         1.00000         1.00000         1.00000    
   2     0.999986         1.00000        0.999986         1.00000         1.00000         1.00000         1.00000         1.00000         1.00000         1.00000    
   3      1.00000        0.999985         1.00000         1.00000         1.00000         1.00000         1.00000         1.00000         1.00000         1.00000    
   4      1.00000         1.00000        0.999985         1.00000         1.00000         1.00000         1.00000         1.00000         1.00000         1.00000    
   5      1.00000         1.00002         1.00000        0.999985        0.999984         1.00000         1.00000         1.00000         1.00000         1.00000    
   6      1.00002         10.0000         1.00000        0.999984         1.00000        0.999983         1.00000         1.00000         1.00000         1.00000    
   7      1.00001         10.0000         1.00000         1.00000         1.00000         1.00000        0.999983         1.00000         1.00000         1.00000    
   8      1.00000         1.00002         1.00000         1.00000         1.00000         1.00000         1.00000        0.999983        0.999982         1.00000    
   9      1.00000         1.00000         1.00000         1.00000         1.00000         1.00000         1.00000        0.999982         1.00000         1.00000    
  10      1.00000         1.00000         1.00000         1.00000         1.00000         1.00000         1.00000         1.00000         1.00000         1.00000    
  11      1.00000         1.00000         1.00000         1.00000         1.00000         1.00000         1.00000         1.00000         1.00000         1.00000    
  12      1.00000         1.00000         1.00000         1.00000         1.00000         1.00000         1.00000         1.00000         1.00000         1.00000    
  13      1.00000         1.00000         1.00000         1.00000         1.00000         1.00000         1.00000         1.00000         1.00000         1.00000    
  14      1.00000         1.00000         1.00000         1.00000         1.00000         1.00000         1.00000         1.00000         1.00000         1.00000    
  15      1.00000         1.00000         1.00000         1.00000         1.00000         1.00000         1.00000         1.00000         1.00000         1.00000    
1
  CONCENTRATION IN LAYER   2 AT END OF TIME STEP  67 IN STRESS PERIOD    2
  ---------------------------------------------------------------------------

                1               2               3               4               5               6               7               8               9              10
 ................................................................................................................................................................
   1      1.00000         1.00000         1.00000         1.00000         1.00000         1.00000         1.00000         1.00000         1.00000         1.00000    
   2      1.00000         1.00000         1.00000         1.00000         1.00000         1.00000         1.00000         1.00000         1.00000         1.00000    
   3      1.00000         1.00000         1.00000         1.00000         1.00000         1.00000         1.00000         1.00000         1.00000         1.00000    
   4      1.00000         1.00000         1.00000         1.00000         1.00000         1.00000         1.00000         1.00000         1.00000         1.00000    
   5      1.00000         1.00000         1.00000         1.00000         1.00000         1.00000         1.00000         1.00000         1.00000         1.00000    
   6      1.00000         1.00001         1.00000         1.00000         1.00000         1.00000         1.00000         1.00000         1.00000         1.00000    
   7      1.00000         1.00000         1.00000         1.00000         1.00000         1.00000         1.00000         1.00000         1.00000         1.00000    
   8      1.00000         1.00000         1.00000         1.00000         1.00000         1.00000         1.00000         1.00000         1.00000         1.00000    
   9      1.00000         1.00000         1.00000         1.00000         1.00000         1.00000         1.00000         1.00000         1.00000         1.00000    
  10      1.00000         1.00000         1.00000         1.00000         1.00000         1.00000         1.00000         1.00000         1.00000         1.00000    
  11      1.00000         1.00000         1.00000         1.00000         1.00000         1.00000         1.00000         1.00000         1.00000         1.00000    
  12      1.00000         1.00000         1.00000         1.00000         1.00000         1.00000         1.00000         1.00000         1.00000         1.00000    
  13      1.00000         1.00000         1.00000         1.00000         1.00000         1.00000         1.00000         1.00000         1.00000         1.00000    
  14      1.00000         1.00000         1.00000         1.00000         1.00000         1.00000         1.00000         1.00000         1.00000         1.00000    
  15      1.00000         1.00000         1.00000         1.00000         1.00000         1.00000         1.00000         1.00000         1.00000         1.00000    
1
  CONCENTRATION IN LAYER   3 AT END OF TIME STEP  67 IN STRESS PERIOD    2
  ---------------------------------------------------------------------------

                1               2               3               4               5               6               7               8               9              10
 ................................................................................................................................................................
   1      1.00000         1.00000         1.00000         1.00000         1.00000         1.00000         1.00000         1.00000         1.00000         1.00000    
   2      1.00000         1.00000         1.00000         1.00000         1.00000         1.00000         1.00000         1.00000         1.00000         1.00000    
   3      1.00000         1.00000         1.00000         1.00000         1.00000         1.00000         1.00000         1.00000         1.00000         1.00000    
   4      1.00000         1.00000         1.00000         1.00000         1.00000         1.00000         1.00000         1.00000         1.00000         1.00000    
   5      1.00000         1.00000         1.00000         1.00000         1.00000         1.00000         1.00000         1.00000         1.00000         1.00000    
   6      1.00000         1.00000         1.00000         1.00000         1.00000         1.00000         1.00000         1.00000         1.00000         1.00000    
   7      1.00000         1.00000         1.00000         1.00000         1.00000         1.00000         1.00000         1.00000         1.00000         1.00000    
   8      1.00000         1.00000         1.00000         1.00000         1.00000         1.00000         1.00000         1.00000         1.00000         1.00000    
   9      1.00000         1.00000         1.00000         1.00000         1.00000         1.00000         1.00000         1.00000         1.00000         1.00000    
  10      1.00000         1.00000         1.00000         1.00000         1.00000         1.00000         1.00000         1.00000         1.00000         1.00000    
  11      1.00000         1.00000         1.00000         1.00000         1.00000         1.00000         1.00000         1.00000         1.00000         1.00000    
  12      1.00000         1.00000         1.00000         1.00000         1.00000         1.00000         1.00000         1.00000         1.00000         1.00000    
  13      1.00000         1.00000         1.00000         1.00000         1.00000         1.00000         1.00000         1.00000         1.00000         1.00000    
  14      1.00000         1.00000         1.00000         1.00000         1.00000         1.00000         1.00000         1.00000         1.00000         1.00000    
  15      1.00000         1.00000         1.00000         1.00000         1.00000         1.00000         1.00000         1.00000         1.00000         1.00000    

 CONCENTRATION WILL BE SAVED ON UNIT 1030 AT END OF TIME STEP   67, STRESS PERIOD    2


  MASS BUDGET FOR ENTIRE MODEL AT END OF TIME STEP   67, STRESS PERIOD   2
  ---------------------------------------------------------------------------------------------------

     CUMULATIVE MASS      M       RATES FOR THIS TIME STEP      M/T          PACKAGE NAME    
     ------------------                 ------------------------                     ----------------

           IN:                                      IN:
           ---                                      ---
     STORAGE-AQUEOUS =          13.4830       STORAGE-AQUEOUS =           2.0475     MST                              
                 RIV =           0.0000                   RIV =           0.0000     SSM_RIV-1                        
                 CHD =           0.0000                   CHD =           0.0000     SSM_CHD-1                        
                 CNC =           5.6193                   CNC =           0.8525     CNC_0                            

            TOTAL IN =          19.1023              TOTAL IN =           2.9000

          OUT:                                     OUT:
          ----                                     ----
     STORAGE-AQUEOUS =           5.9134       STORAGE-AQUEOUS =           0.8966     MST                              
                 RIV =           0.0000                   RIV =           0.0000     SSM_RIV-1                        
                 CHD =          12.6791                   CHD =           1.9260     SSM_CHD-1                        
                 CNC =           0.5098                   CNC =       7.7433E-02     CNC_0                            

           TOTAL OUT =          19.1023             TOTAL OUT =           2.9000

            IN - OUT =       1.3515E-09              IN - OUT =      -3.2364E-10

 PERCENT DISCREPANCY =           0.00     PERCENT DISCREPANCY =          -0.00




         TIME SUMMARY AT END OF TIME STEP   67 IN STRESS PERIOD    2
                    SECONDS     MINUTES      HOURS       DAYS        YEARS
                    -----------------------------------------------------------
   TIME STEP LENGTH  7200.0      120.00      2.0000     8.33333E-02 2.28154E-04
 STRESS PERIOD TIME 4.82400E+05  8040.0      134.00      5.5833     1.52863E-02
         TOTAL TIME 5.68800E+05  9480.0      158.00      6.5833     1.80242E-02


end timestep


start timestep kper="2" kstp="68" mode="normal"

 UBDSV1 SAVING  STORAGE-AQUEOUS ON UNIT   1029 AT TIME STEP     68, STRESS PERIOD      2
 UBDSV1 SAVING     FLOW-JA-FACE ON UNIT   1029 AT TIME STEP     68, STRESS PERIOD      2
 UBDSV06 SAVING  SOURCE-SINK MIX IN MODEL GWT_RIVERBASE    PACKAGE GWT_RIVERBASE   CONNECTED TO MODEL GWT_RIVERBASE    PACKAGE SSM              ON UNIT   1029 AT TIME STEP     68, STRESS PERIOD      2
 UBDSV06 SAVING              CNC IN MODEL GWT_RIVERBASE    PACKAGE GWT_RIVERBASE   CONNECTED TO MODEL GWT_RIVERBASE    PACKAGE CNC_0            ON UNIT   1029 AT TIME STEP     68, STRESS PERIOD      2
1
  CONCENTRATION IN LAYER   1 AT END OF TIME STEP  68 IN STRESS PERIOD    2
  ---------------------------------------------------------------------------

                1               2               3               4               5               6               7               8               9              10
 ................................................................................................................................................................
   1      1.00000         1.00000         1.00000         1.00000         1.00000         1.00000         1.00000         1.00000         1.00000         1.00000    
   2     0.999986         1.00000        0.999986         1.00000         1.00000         1.00000         1.00000         1.00000         1.00000         1.00000    
   3      1.00000        0.999985         1.00000         1.00000         1.00000         1.00000         1.00000         1.00000         1.00000         1.00000    
   4      1.00000         1.00000        0.999985         1.00000         1.00000         1.00000         1.00000         1.00000         1.00000         1.00000    
   5      1.00000         1.00002         1.00000        0.999985        0.999984         1.00000         1.00000         1.00000         1.00000         1.00000    
   6      1.00002         10.0000         1.00000        0.999984         1.00000        0.999983         1.00000         1.00000         1.00000         1.00000    
   7      1.00002         10.0000         1.00000         1.00000         1.00000         1.00000        0.999983         1.00000         1.00000         1.00000    
   8      1.00000         1.00002         1.00000         1.00000         1.00000         1.00000         1.00000        0.999982        0.999982         1.00000    
   9      1.00000         1.00000         1.00000         1.00000         1.00000         1.00000         1.00000        0.999982         1.00000         1.00000    
  10      1.00000         1.00000         1.00000         1.00000         1.00000         1.00000         1.00000         1.00000         1.00000         1.00000    
  11      1.00000         1.00000         1.00000         1.00000         1.00000         1.00000         1.00000         1.00000         1.00000         1.00000    
  12      1.00000         1.00000         1.00000         1.00000         1.00000         1.00000         1.00000         1.00000         1.00000         1.00000    
  13      1.00000         1.00000         1.00000         1.00000         1.00000         1.00000         1.00000         1.00000         1.00000         1.00000    
  14      1.00000         1.00000         1.00000         1.00000         1.00000         1.00000         1.00000         1.00000         1.00000         1.00000    
  15      1.00000         1.00000         1.00000         1.00000         1.00000         1.00000         1.00000         1.00000         1.00000         1.00000    
1
  CONCENTRATION IN LAYER   2 AT END OF TIME STEP  68 IN STRESS PERIOD    2
  ---------------------------------------------------------------------------

                1               2               3               4               5               6               7               8               9              10
 ................................................................................................................................................................
   1      1.00000         1.00000         1.00000         1.00000         1.00000         1.00000         1.00000         1.00000         1.00000         1.00000    
   2      1.00000         1.00000         1.00000         1.00000         1.00000         1.00000         1.00000         1.00000         1.00000         1.00000    
   3      1.00000         1.00000         1.00000         1.00000         1.00000         1.00000         1.00000         1.00000         1.00000         1.00000    
   4      1.00000         1.00000         1.00000         1.00000         1.00000         1.00000         1.00000         1.00000         1.00000         1.00000    
   5      1.00000         1.00000         1.00000         1.00000         1.00000         1.00000         1.00000         1.00000         1.00000         1.00000    
   6      1.00000         1.00001         1.00000         1.00000         1.00000         1.00000         1.00000         1.00000         1.00000         1.00000    
   7      1.00000         1.00000         1.00000         1.00000         1.00000         1.00000         1.00000         1.00000         1.00000         1.00000    
   8      1.00000         1.00000         1.00000         1.00000         1.00000         1.00000         1.00000         1.00000         1.00000         1.00000    
   9      1.00000         1.00000         1.00000         1.00000         1.00000         1.00000         1.00000         1.00000         1.00000         1.00000    
  10      1.00000         1.00000         1.00000         1.00000         1.00000         1.00000         1.00000         1.00000         1.00000         1.00000    
  11      1.00000         1.00000         1.00000         1.00000         1.00000         1.00000         1.00000         1.00000         1.00000         1.00000    
  12      1.00000         1.00000         1.00000         1.00000         1.00000         1.00000         1.00000         1.00000         1.00000         1.00000    
  13      1.00000         1.00000         1.00000         1.00000         1.00000         1.00000         1.00000         1.00000         1.00000         1.00000    
  14      1.00000         1.00000         1.00000         1.00000         1.00000         1.00000         1.00000         1.00000         1.00000         1.00000    
  15      1.00000         1.00000         1.00000         1.00000         1.00000         1.00000         1.00000         1.00000         1.00000         1.00000    
1
  CONCENTRATION IN LAYER   3 AT END OF TIME STEP  68 IN STRESS PERIOD    2
  ---------------------------------------------------------------------------

                1               2               3               4               5               6               7               8               9              10
 ................................................................................................................................................................
   1      1.00000         1.00000         1.00000         1.00000         1.00000         1.00000         1.00000         1.00000         1.00000         1.00000    
   2      1.00000         1.00000         1.00000         1.00000         1.00000         1.00000         1.00000         1.00000         1.00000         1.00000    
   3      1.00000         1.00000         1.00000         1.00000         1.00000         1.00000         1.00000         1.00000         1.00000         1.00000    
   4      1.00000         1.00000         1.00000         1.00000         1.00000         1.00000         1.00000         1.00000         1.00000         1.00000    
   5      1.00000         1.00000         1.00000         1.00000         1.00000         1.00000         1.00000         1.00000         1.00000         1.00000    
   6      1.00000         1.00000         1.00000         1.00000         1.00000         1.00000         1.00000         1.00000         1.00000         1.00000    
   7      1.00000         1.00000         1.00000         1.00000         1.00000         1.00000         1.00000         1.00000         1.00000         1.00000    
   8      1.00000         1.00000         1.00000         1.00000         1.00000         1.00000         1.00000         1.00000         1.00000         1.00000    
   9      1.00000         1.00000         1.00000         1.00000         1.00000         1.00000         1.00000         1.00000         1.00000         1.00000    
  10      1.00000         1.00000         1.00000         1.00000         1.00000         1.00000         1.00000         1.00000         1.00000         1.00000    
  11      1.00000         1.00000         1.00000         1.00000         1.00000         1.00000         1.00000         1.00000         1.00000         1.00000    
  12      1.00000         1.00000         1.00000         1.00000         1.00000         1.00000         1.00000         1.00000         1.00000         1.00000    
  13      1.00000         1.00000         1.00000         1.00000         1.00000         1.00000         1.00000         1.00000         1.00000         1.00000    
  14      1.00000         1.00000         1.00000         1.00000         1.00000         1.00000         1.00000         1.00000         1.00000         1.00000    
  15      1.00000         1.00000         1.00000         1.00000         1.00000         1.00000         1.00000         1.00000         1.00000         1.00000    

 CONCENTRATION WILL BE SAVED ON UNIT 1030 AT END OF TIME STEP   68, STRESS PERIOD    2


  MASS BUDGET FOR ENTIRE MODEL AT END OF TIME STEP   68, STRESS PERIOD   2
  ---------------------------------------------------------------------------------------------------

     CUMULATIVE MASS      M       RATES FOR THIS TIME STEP      M/T          PACKAGE NAME    
     ------------------                 ------------------------                     ----------------

           IN:                                      IN:
           ---                                      ---
     STORAGE-AQUEOUS =          13.6536       STORAGE-AQUEOUS =           2.0475     MST                              
                 RIV =           0.0000                   RIV =           0.0000     SSM_RIV-1                        
                 CHD =           0.0000                   CHD =           0.0000     SSM_CHD-1                        
                 CNC =           5.6903                   CNC =           0.8525     CNC_0                            

            TOTAL IN =          19.3440              TOTAL IN =           2.9000

          OUT:                                     OUT:
          ----                                     ----
     STORAGE-AQUEOUS =           5.9882       STORAGE-AQUEOUS =           0.8966     MST                              
                 RIV =           0.0000                   RIV =           0.0000     SSM_RIV-1                        
                 CHD =          12.8396                   CHD =           1.9260     SSM_CHD-1                        
                 CNC =           0.5162                   CNC =       7.7432E-02     CNC_0                            

           TOTAL OUT =          19.3440             TOTAL OUT =           2.9000

            IN - OUT =       1.4664E-09              IN - OUT =       1.3788E-09

 PERCENT DISCREPANCY =           0.00     PERCENT DISCREPANCY =           0.00




         TIME SUMMARY AT END OF TIME STEP   68 IN STRESS PERIOD    2
                    SECONDS     MINUTES      HOURS       DAYS        YEARS
                    -----------------------------------------------------------
   TIME STEP LENGTH  7200.0      120.00      2.0000     8.33333E-02 2.28154E-04
 STRESS PERIOD TIME 4.89600E+05  8160.0      136.00      5.6667     1.55145E-02
         TOTAL TIME 5.76000E+05  9600.0      160.00      6.6667     1.82523E-02


end timestep


start timestep kper="2" kstp="69" mode="normal"

 UBDSV1 SAVING  STORAGE-AQUEOUS ON UNIT   1029 AT TIME STEP     69, STRESS PERIOD      2
 UBDSV1 SAVING     FLOW-JA-FACE ON UNIT   1029 AT TIME STEP     69, STRESS PERIOD      2
 UBDSV06 SAVING  SOURCE-SINK MIX IN MODEL GWT_RIVERBASE    PACKAGE GWT_RIVERBASE   CONNECTED TO MODEL GWT_RIVERBASE    PACKAGE SSM              ON UNIT   1029 AT TIME STEP     69, STRESS PERIOD      2
 UBDSV06 SAVING              CNC IN MODEL GWT_RIVERBASE    PACKAGE GWT_RIVERBASE   CONNECTED TO MODEL GWT_RIVERBASE    PACKAGE CNC_0            ON UNIT   1029 AT TIME STEP     69, STRESS PERIOD      2
1
  CONCENTRATION IN LAYER   1 AT END OF TIME STEP  69 IN STRESS PERIOD    2
  ---------------------------------------------------------------------------

                1               2               3               4               5               6               7               8               9              10
 ................................................................................................................................................................
   1      1.00000         1.00000         1.00000         1.00000         1.00000         1.00000         1.00000         1.00000         1.00000         1.00000    
   2     0.999986         1.00000        0.999986         1.00000         1.00000         1.00000         1.00000         1.00000         1.00000         1.00000    
   3      1.00000        0.999985         1.00000         1.00000         1.00000         1.00000         1.00000         1.00000         1.00000         1.00000    
   4      1.00000         1.00000        0.999985         1.00000         1.00000         1.00000         1.00000         1.00000         1.00000         1.00000    
   5      1.00000         1.00002         1.00000        0.999984        0.999983         1.00000         1.00000         1.00000         1.00000         1.00000    
   6      1.00002         10.0000         1.00000        0.999984         1.00000        0.999983         1.00000         1.00000         1.00000         1.00000    
   7      1.00002         10.0000         1.00000         1.00000         1.00000         1.00000        0.999983         1.00000         1.00000         1.00000    
   8      1.00000         1.00002         1.00000         1.00000         1.00000         1.00000         1.00000        0.999982        0.999981         1.00000    
   9      1.00000         1.00000         1.00000         1.00000         1.00000         1.00000         1.00000        0.999982         1.00000         1.00000    
  10      1.00000         1.00000         1.00000         1.00000         1.00000         1.00000         1.00000         1.00000         1.00000         1.00000    
  11      1.00000         1.00000         1.00000         1.00000         1.00000         1.00000         1.00000         1.00000         1.00000         1.00000    
  12      1.00000         1.00000         1.00000         1.00000         1.00000         1.00000         1.00000         1.00000         1.00000         1.00000    
  13      1.00000         1.00000         1.00000         1.00000         1.00000         1.00000         1.00000         1.00000         1.00000         1.00000    
  14      1.00000         1.00000         1.00000         1.00000         1.00000         1.00000         1.00000         1.00000         1.00000         1.00000    
  15      1.00000         1.00000         1.00000         1.00000         1.00000         1.00000         1.00000         1.00000         1.00000         1.00000    
1
  CONCENTRATION IN LAYER   2 AT END OF TIME STEP  69 IN STRESS PERIOD    2
  ---------------------------------------------------------------------------

                1               2               3               4               5               6               7               8               9              10
 ................................................................................................................................................................
   1      1.00000         1.00000         1.00000         1.00000         1.00000         1.00000         1.00000         1.00000         1.00000         1.00000    
   2      1.00000         1.00000         1.00000         1.00000         1.00000         1.00000         1.00000         1.00000         1.00000         1.00000    
   3      1.00000         1.00000         1.00000         1.00000         1.00000         1.00000         1.00000         1.00000         1.00000         1.00000    
   4      1.00000         1.00000         1.00000         1.00000         1.00000         1.00000         1.00000         1.00000         1.00000         1.00000    
   5      1.00000         1.00000         1.00000         1.00000         1.00000         1.00000         1.00000         1.00000         1.00000         1.00000    
   6      1.00000         1.00001         1.00000         1.00000         1.00000         1.00000         1.00000         1.00000         1.00000         1.00000    
   7      1.00000         1.00000         1.00000         1.00000         1.00000         1.00000         1.00000         1.00000         1.00000         1.00000    
   8      1.00000         1.00000         1.00000         1.00000         1.00000         1.00000         1.00000         1.00000         1.00000         1.00000    
   9      1.00000         1.00000         1.00000         1.00000         1.00000         1.00000         1.00000         1.00000         1.00000         1.00000    
  10      1.00000         1.00000         1.00000         1.00000         1.00000         1.00000         1.00000         1.00000         1.00000         1.00000    
  11      1.00000         1.00000         1.00000         1.00000         1.00000         1.00000         1.00000         1.00000         1.00000         1.00000    
  12      1.00000         1.00000         1.00000         1.00000         1.00000         1.00000         1.00000         1.00000         1.00000         1.00000    
  13      1.00000         1.00000         1.00000         1.00000         1.00000         1.00000         1.00000         1.00000         1.00000         1.00000    
  14      1.00000         1.00000         1.00000         1.00000         1.00000         1.00000         1.00000         1.00000         1.00000         1.00000    
  15      1.00000         1.00000         1.00000         1.00000         1.00000         1.00000         1.00000         1.00000         1.00000         1.00000    
1
  CONCENTRATION IN LAYER   3 AT END OF TIME STEP  69 IN STRESS PERIOD    2
  ---------------------------------------------------------------------------

                1               2               3               4               5               6               7               8               9              10
 ................................................................................................................................................................
   1      1.00000         1.00000         1.00000         1.00000         1.00000         1.00000         1.00000         1.00000         1.00000         1.00000    
   2      1.00000         1.00000         1.00000         1.00000         1.00000         1.00000         1.00000         1.00000         1.00000         1.00000    
   3      1.00000         1.00000         1.00000         1.00000         1.00000         1.00000         1.00000         1.00000         1.00000         1.00000    
   4      1.00000         1.00000         1.00000         1.00000         1.00000         1.00000         1.00000         1.00000         1.00000         1.00000    
   5      1.00000         1.00000         1.00000         1.00000         1.00000         1.00000         1.00000         1.00000         1.00000         1.00000    
   6      1.00000         1.00000         1.00000         1.00000         1.00000         1.00000         1.00000         1.00000         1.00000         1.00000    
   7      1.00000         1.00000         1.00000         1.00000         1.00000         1.00000         1.00000         1.00000         1.00000         1.00000    
   8      1.00000         1.00000         1.00000         1.00000         1.00000         1.00000         1.00000         1.00000         1.00000         1.00000    
   9      1.00000         1.00000         1.00000         1.00000         1.00000         1.00000         1.00000         1.00000         1.00000         1.00000    
  10      1.00000         1.00000         1.00000         1.00000         1.00000         1.00000         1.00000         1.00000         1.00000         1.00000    
  11      1.00000         1.00000         1.00000         1.00000         1.00000         1.00000         1.00000         1.00000         1.00000         1.00000    
  12      1.00000         1.00000         1.00000         1.00000         1.00000         1.00000         1.00000         1.00000         1.00000         1.00000    
  13      1.00000         1.00000         1.00000         1.00000         1.00000         1.00000         1.00000         1.00000         1.00000         1.00000    
  14      1.00000         1.00000         1.00000         1.00000         1.00000         1.00000         1.00000         1.00000         1.00000         1.00000    
  15      1.00000         1.00000         1.00000         1.00000         1.00000         1.00000         1.00000         1.00000         1.00000         1.00000    

 CONCENTRATION WILL BE SAVED ON UNIT 1030 AT END OF TIME STEP   69, STRESS PERIOD    2


  MASS BUDGET FOR ENTIRE MODEL AT END OF TIME STEP   69, STRESS PERIOD   2
  ---------------------------------------------------------------------------------------------------

     CUMULATIVE MASS      M       RATES FOR THIS TIME STEP      M/T          PACKAGE NAME    
     ------------------                 ------------------------                     ----------------

           IN:                                      IN:
           ---                                      ---
     STORAGE-AQUEOUS =          13.8242       STORAGE-AQUEOUS =           2.0475     MST                              
                 RIV =           0.0000                   RIV =           0.0000     SSM_RIV-1                        
                 CHD =           0.0000                   CHD =           0.0000     SSM_CHD-1                        
                 CNC =           5.7614                   CNC =           0.8525     CNC_0                            

            TOTAL IN =          19.5856              TOTAL IN =           2.9000

          OUT:                                     OUT:
          ----                                     ----
     STORAGE-AQUEOUS =           6.0629       STORAGE-AQUEOUS =           0.8966     MST                              
                 RIV =           0.0000                   RIV =           0.0000     SSM_RIV-1                        
                 CHD =          13.0001                   CHD =           1.9260     SSM_CHD-1                        
                 CNC =           0.5227                   CNC =       7.7432E-02     CNC_0                            

           TOTAL OUT =          19.5856             TOTAL OUT =           2.9000

            IN - OUT =       1.7132E-09              IN - OUT =       2.9627E-09

 PERCENT DISCREPANCY =           0.00     PERCENT DISCREPANCY =           0.00




         TIME SUMMARY AT END OF TIME STEP   69 IN STRESS PERIOD    2
                    SECONDS     MINUTES      HOURS       DAYS        YEARS
                    -----------------------------------------------------------
   TIME STEP LENGTH  7200.0      120.00      2.0000     8.33333E-02 2.28154E-04
 STRESS PERIOD TIME 4.96800E+05  8280.0      138.00      5.7500     1.57426E-02
         TOTAL TIME 5.83200E+05  9720.0      162.00      6.7500     1.84805E-02


end timestep


start timestep kper="2" kstp="70" mode="normal"

 UBDSV1 SAVING  STORAGE-AQUEOUS ON UNIT   1029 AT TIME STEP     70, STRESS PERIOD      2
 UBDSV1 SAVING     FLOW-JA-FACE ON UNIT   1029 AT TIME STEP     70, STRESS PERIOD      2
 UBDSV06 SAVING  SOURCE-SINK MIX IN MODEL GWT_RIVERBASE    PACKAGE GWT_RIVERBASE   CONNECTED TO MODEL GWT_RIVERBASE    PACKAGE SSM              ON UNIT   1029 AT TIME STEP     70, STRESS PERIOD      2
 UBDSV06 SAVING              CNC IN MODEL GWT_RIVERBASE    PACKAGE GWT_RIVERBASE   CONNECTED TO MODEL GWT_RIVERBASE    PACKAGE CNC_0            ON UNIT   1029 AT TIME STEP     70, STRESS PERIOD      2
1
  CONCENTRATION IN LAYER   1 AT END OF TIME STEP  70 IN STRESS PERIOD    2
  ---------------------------------------------------------------------------

                1               2               3               4               5               6               7               8               9              10
 ................................................................................................................................................................
   1      1.00000         1.00000         1.00000         1.00000         1.00000         1.00000         1.00000         1.00000         1.00000         1.00000    
   2     0.999986         1.00000        0.999985         1.00000         1.00000         1.00000         1.00000         1.00000         1.00000         1.00000    
   3      1.00000        0.999985         1.00000         1.00000         1.00000         1.00000         1.00000         1.00000         1.00000         1.00000    
   4      1.00000         1.00000        0.999985         1.00000         1.00000         1.00000         1.00000         1.00000         1.00000         1.00000    
   5      1.00000         1.00002         1.00000        0.999984        0.999983         1.00000         1.00000         1.00000         1.00000         1.00000    
   6      1.00002         10.0000         1.00000        0.999984         1.00000        0.999983         1.00000         1.00000         1.00000         1.00000    
   7      1.00002         10.0000         1.00000         1.00000         1.00000         1.00000        0.999982         1.00000         1.00000         1.00000    
   8      1.00000         1.00002         1.00000         1.00000         1.00000         1.00000         1.00000        0.999982        0.999981         1.00000    
   9      1.00000         1.00000         1.00000         1.00000         1.00000         1.00000         1.00000        0.999981         1.00000         1.00000    
  10      1.00000         1.00000         1.00000         1.00000         1.00000         1.00000         1.00000         1.00000         1.00000         1.00000    
  11      1.00000         1.00000         1.00000         1.00000         1.00000         1.00000         1.00000         1.00000         1.00000         1.00000    
  12      1.00000         1.00000         1.00000         1.00000         1.00000         1.00000         1.00000         1.00000         1.00000         1.00000    
  13      1.00000         1.00000         1.00000         1.00000         1.00000         1.00000         1.00000         1.00000         1.00000         1.00000    
  14      1.00000         1.00000         1.00000         1.00000         1.00000         1.00000         1.00000         1.00000         1.00000         1.00000    
  15      1.00000         1.00000         1.00000         1.00000         1.00000         1.00000         1.00000         1.00000         1.00000         1.00000    
1
  CONCENTRATION IN LAYER   2 AT END OF TIME STEP  70 IN STRESS PERIOD    2
  ---------------------------------------------------------------------------

                1               2               3               4               5               6               7               8               9              10
 ................................................................................................................................................................
   1      1.00000         1.00000         1.00000         1.00000         1.00000         1.00000         1.00000         1.00000         1.00000         1.00000    
   2      1.00000         1.00000         1.00000         1.00000         1.00000         1.00000         1.00000         1.00000         1.00000         1.00000    
   3      1.00000         1.00000         1.00000         1.00000         1.00000         1.00000         1.00000         1.00000         1.00000         1.00000    
   4      1.00000         1.00000         1.00000         1.00000         1.00000         1.00000         1.00000         1.00000         1.00000         1.00000    
   5      1.00000         1.00000         1.00000         1.00000         1.00000         1.00000         1.00000         1.00000         1.00000         1.00000    
   6      1.00000         1.00001         1.00000         1.00000         1.00000         1.00000         1.00000         1.00000         1.00000         1.00000    
   7      1.00000         1.00000         1.00000         1.00000         1.00000         1.00000         1.00000         1.00000         1.00000         1.00000    
   8      1.00000         1.00000         1.00000         1.00000         1.00000         1.00000         1.00000         1.00000         1.00000         1.00000    
   9      1.00000         1.00000         1.00000         1.00000         1.00000         1.00000         1.00000         1.00000         1.00000         1.00000    
  10      1.00000         1.00000         1.00000         1.00000         1.00000         1.00000         1.00000         1.00000         1.00000         1.00000    
  11      1.00000         1.00000         1.00000         1.00000         1.00000         1.00000         1.00000         1.00000         1.00000         1.00000    
  12      1.00000         1.00000         1.00000         1.00000         1.00000         1.00000         1.00000         1.00000         1.00000         1.00000    
  13      1.00000         1.00000         1.00000         1.00000         1.00000         1.00000         1.00000         1.00000         1.00000         1.00000    
  14      1.00000         1.00000         1.00000         1.00000         1.00000         1.00000         1.00000         1.00000         1.00000         1.00000    
  15      1.00000         1.00000         1.00000         1.00000         1.00000         1.00000         1.00000         1.00000         1.00000         1.00000    
1
  CONCENTRATION IN LAYER   3 AT END OF TIME STEP  70 IN STRESS PERIOD    2
  ---------------------------------------------------------------------------

                1               2               3               4               5               6               7               8               9              10
 ................................................................................................................................................................
   1      1.00000         1.00000         1.00000         1.00000         1.00000         1.00000         1.00000         1.00000         1.00000         1.00000    
   2      1.00000         1.00000         1.00000         1.00000         1.00000         1.00000         1.00000         1.00000         1.00000         1.00000    
   3      1.00000         1.00000         1.00000         1.00000         1.00000         1.00000         1.00000         1.00000         1.00000         1.00000    
   4      1.00000         1.00000         1.00000         1.00000         1.00000         1.00000         1.00000         1.00000         1.00000         1.00000    
   5      1.00000         1.00000         1.00000         1.00000         1.00000         1.00000         1.00000         1.00000         1.00000         1.00000    
   6      1.00000         1.00000         1.00000         1.00000         1.00000         1.00000         1.00000         1.00000         1.00000         1.00000    
   7      1.00000         1.00000         1.00000         1.00000         1.00000         1.00000         1.00000         1.00000         1.00000         1.00000    
   8      1.00000         1.00000         1.00000         1.00000         1.00000         1.00000         1.00000         1.00000         1.00000         1.00000    
   9      1.00000         1.00000         1.00000         1.00000         1.00000         1.00000         1.00000         1.00000         1.00000         1.00000    
  10      1.00000         1.00000         1.00000         1.00000         1.00000         1.00000         1.00000         1.00000         1.00000         1.00000    
  11      1.00000         1.00000         1.00000         1.00000         1.00000         1.00000         1.00000         1.00000         1.00000         1.00000    
  12      1.00000         1.00000         1.00000         1.00000         1.00000         1.00000         1.00000         1.00000         1.00000         1.00000    
  13      1.00000         1.00000         1.00000         1.00000         1.00000         1.00000         1.00000         1.00000         1.00000         1.00000    
  14      1.00000         1.00000         1.00000         1.00000         1.00000         1.00000         1.00000         1.00000         1.00000         1.00000    
  15      1.00000         1.00000         1.00000         1.00000         1.00000         1.00000         1.00000         1.00000         1.00000         1.00000    

 CONCENTRATION WILL BE SAVED ON UNIT 1030 AT END OF TIME STEP   70, STRESS PERIOD    2


  MASS BUDGET FOR ENTIRE MODEL AT END OF TIME STEP   70, STRESS PERIOD   2
  ---------------------------------------------------------------------------------------------------

     CUMULATIVE MASS      M       RATES FOR THIS TIME STEP      M/T          PACKAGE NAME    
     ------------------                 ------------------------                     ----------------

           IN:                                      IN:
           ---                                      ---
     STORAGE-AQUEOUS =          13.9949       STORAGE-AQUEOUS =           2.0475     MST                              
                 RIV =           0.0000                   RIV =           0.0000     SSM_RIV-1                        
                 CHD =           0.0000                   CHD =           0.0000     SSM_CHD-1                        
                 CNC =           5.8324                   CNC =           0.8525     CNC_0                            

            TOTAL IN =          19.8273              TOTAL IN =           2.9000

          OUT:                                     OUT:
          ----                                     ----
     STORAGE-AQUEOUS =           6.1376       STORAGE-AQUEOUS =           0.8966     MST                              
                 RIV =           0.0000                   RIV =           0.0000     SSM_RIV-1                        
                 CHD =          13.1605                   CHD =           1.9260     SSM_CHD-1                        
                 CNC =           0.5291                   CNC =       7.7432E-02     CNC_0                            

           TOTAL OUT =          19.8273             TOTAL OUT =           2.9000

            IN - OUT =       1.7136E-09              IN - OUT =       4.6887E-12

 PERCENT DISCREPANCY =           0.00     PERCENT DISCREPANCY =           0.00




         TIME SUMMARY AT END OF TIME STEP   70 IN STRESS PERIOD    2
                    SECONDS     MINUTES      HOURS       DAYS        YEARS
                    -----------------------------------------------------------
   TIME STEP LENGTH  7200.0      120.00      2.0000     8.33333E-02 2.28154E-04
 STRESS PERIOD TIME 5.04000E+05  8400.0      140.00      5.8333     1.59708E-02
         TOTAL TIME 5.90400E+05  9840.0      164.00      6.8333     1.87086E-02


end timestep


start timestep kper="2" kstp="71" mode="normal"

 UBDSV1 SAVING  STORAGE-AQUEOUS ON UNIT   1029 AT TIME STEP     71, STRESS PERIOD      2
 UBDSV1 SAVING     FLOW-JA-FACE ON UNIT   1029 AT TIME STEP     71, STRESS PERIOD      2
 UBDSV06 SAVING  SOURCE-SINK MIX IN MODEL GWT_RIVERBASE    PACKAGE GWT_RIVERBASE   CONNECTED TO MODEL GWT_RIVERBASE    PACKAGE SSM              ON UNIT   1029 AT TIME STEP     71, STRESS PERIOD      2
 UBDSV06 SAVING              CNC IN MODEL GWT_RIVERBASE    PACKAGE GWT_RIVERBASE   CONNECTED TO MODEL GWT_RIVERBASE    PACKAGE CNC_0            ON UNIT   1029 AT TIME STEP     71, STRESS PERIOD      2
1
  CONCENTRATION IN LAYER   1 AT END OF TIME STEP  71 IN STRESS PERIOD    2
  ---------------------------------------------------------------------------

                1               2               3               4               5               6               7               8               9              10
 ................................................................................................................................................................
   1      1.00000         1.00000         1.00000         1.00000         1.00000         1.00000         1.00000         1.00000         1.00000         1.00000    
   2     0.999985         1.00000        0.999985         1.00000         1.00000         1.00000         1.00000         1.00000         1.00000         1.00000    
   3      1.00000        0.999985         1.00000         1.00000         1.00000         1.00000         1.00000         1.00000         1.00000         1.00000    
   4      1.00000         1.00000        0.999984         1.00000         1.00000         1.00000         1.00000         1.00000         1.00000         1.00000    
   5      1.00000         1.00002         1.00000        0.999984        0.999983         1.00000         1.00000         1.00000         1.00000         1.00000    
   6      1.00002         10.0000         1.00000        0.999984         1.00000        0.999983         1.00000         1.00000         1.00000         1.00000    
   7      1.00002         10.0000         1.00000         1.00000         1.00000         1.00000        0.999982         1.00000         1.00000         1.00000    
   8      1.00000         1.00002         1.00000         1.00000         1.00000         1.00000         1.00000        0.999982        0.999981         1.00000    
   9      1.00000         1.00000         1.00000         1.00000         1.00000         1.00000         1.00000        0.999981         1.00000         1.00000    
  10      1.00000         1.00000         1.00000         1.00000         1.00000         1.00000         1.00000         1.00000         1.00000         1.00000    
  11      1.00000         1.00000         1.00000         1.00000         1.00000         1.00000         1.00000         1.00000         1.00000         1.00000    
  12      1.00000         1.00000         1.00000         1.00000         1.00000         1.00000         1.00000         1.00000         1.00000         1.00000    
  13      1.00000         1.00000         1.00000         1.00000         1.00000         1.00000         1.00000         1.00000         1.00000         1.00000    
  14      1.00000         1.00000         1.00000         1.00000         1.00000         1.00000         1.00000         1.00000         1.00000         1.00000    
  15      1.00000         1.00000         1.00000         1.00000         1.00000         1.00000         1.00000         1.00000         1.00000         1.00000    
1
  CONCENTRATION IN LAYER   2 AT END OF TIME STEP  71 IN STRESS PERIOD    2
  ---------------------------------------------------------------------------

                1               2               3               4               5               6               7               8               9              10
 ................................................................................................................................................................
   1      1.00000         1.00000         1.00000         1.00000         1.00000         1.00000         1.00000         1.00000         1.00000         1.00000    
   2      1.00000         1.00000         1.00000         1.00000         1.00000         1.00000         1.00000         1.00000         1.00000         1.00000    
   3      1.00000         1.00000         1.00000         1.00000         1.00000         1.00000         1.00000         1.00000         1.00000         1.00000    
   4      1.00000         1.00000         1.00000         1.00000         1.00000         1.00000         1.00000         1.00000         1.00000         1.00000    
   5      1.00000         1.00000         1.00000         1.00000         1.00000         1.00000         1.00000         1.00000         1.00000         1.00000    
   6      1.00000         1.00001         1.00000         1.00000         1.00000         1.00000         1.00000         1.00000         1.00000         1.00000    
   7      1.00000         1.00000         1.00000         1.00000         1.00000         1.00000         1.00000         1.00000         1.00000         1.00000    
   8      1.00000         1.00000         1.00000         1.00000         1.00000         1.00000         1.00000         1.00000         1.00000         1.00000    
   9      1.00000         1.00000         1.00000         1.00000         1.00000         1.00000         1.00000         1.00000         1.00000         1.00000    
  10      1.00000         1.00000         1.00000         1.00000         1.00000         1.00000         1.00000         1.00000         1.00000         1.00000    
  11      1.00000         1.00000         1.00000         1.00000         1.00000         1.00000         1.00000         1.00000         1.00000         1.00000    
  12      1.00000         1.00000         1.00000         1.00000         1.00000         1.00000         1.00000         1.00000         1.00000         1.00000    
  13      1.00000         1.00000         1.00000         1.00000         1.00000         1.00000         1.00000         1.00000         1.00000         1.00000    
  14      1.00000         1.00000         1.00000         1.00000         1.00000         1.00000         1.00000         1.00000         1.00000         1.00000    
  15      1.00000         1.00000         1.00000         1.00000         1.00000         1.00000         1.00000         1.00000         1.00000         1.00000    
1
  CONCENTRATION IN LAYER   3 AT END OF TIME STEP  71 IN STRESS PERIOD    2
  ---------------------------------------------------------------------------

                1               2               3               4               5               6               7               8               9              10
 ................................................................................................................................................................
   1      1.00000         1.00000         1.00000         1.00000         1.00000         1.00000         1.00000         1.00000         1.00000         1.00000    
   2      1.00000         1.00000         1.00000         1.00000         1.00000         1.00000         1.00000         1.00000         1.00000         1.00000    
   3      1.00000         1.00000         1.00000         1.00000         1.00000         1.00000         1.00000         1.00000         1.00000         1.00000    
   4      1.00000         1.00000         1.00000         1.00000         1.00000         1.00000         1.00000         1.00000         1.00000         1.00000    
   5      1.00000         1.00000         1.00000         1.00000         1.00000         1.00000         1.00000         1.00000         1.00000         1.00000    
   6      1.00000         1.00000         1.00000         1.00000         1.00000         1.00000         1.00000         1.00000         1.00000         1.00000    
   7      1.00000         1.00000         1.00000         1.00000         1.00000         1.00000         1.00000         1.00000         1.00000         1.00000    
   8      1.00000         1.00000         1.00000         1.00000         1.00000         1.00000         1.00000         1.00000         1.00000         1.00000    
   9      1.00000         1.00000         1.00000         1.00000         1.00000         1.00000         1.00000         1.00000         1.00000         1.00000    
  10      1.00000         1.00000         1.00000         1.00000         1.00000         1.00000         1.00000         1.00000         1.00000         1.00000    
  11      1.00000         1.00000         1.00000         1.00000         1.00000         1.00000         1.00000         1.00000         1.00000         1.00000    
  12      1.00000         1.00000         1.00000         1.00000         1.00000         1.00000         1.00000         1.00000         1.00000         1.00000    
  13      1.00000         1.00000         1.00000         1.00000         1.00000         1.00000         1.00000         1.00000         1.00000         1.00000    
  14      1.00000         1.00000         1.00000         1.00000         1.00000         1.00000         1.00000         1.00000         1.00000         1.00000    
  15      1.00000         1.00000         1.00000         1.00000         1.00000         1.00000         1.00000         1.00000         1.00000         1.00000    

 CONCENTRATION WILL BE SAVED ON UNIT 1030 AT END OF TIME STEP   71, STRESS PERIOD    2


  MASS BUDGET FOR ENTIRE MODEL AT END OF TIME STEP   71, STRESS PERIOD   2
  ---------------------------------------------------------------------------------------------------

     CUMULATIVE MASS      M       RATES FOR THIS TIME STEP      M/T          PACKAGE NAME    
     ------------------                 ------------------------                     ----------------

           IN:                                      IN:
           ---                                      ---
     STORAGE-AQUEOUS =          14.1655       STORAGE-AQUEOUS =           2.0475     MST                              
                 RIV =           0.0000                   RIV =           0.0000     SSM_RIV-1                        
                 CHD =           0.0000                   CHD =           0.0000     SSM_CHD-1                        
                 CNC =           5.9035                   CNC =           0.8525     CNC_0                            

            TOTAL IN =          20.0690              TOTAL IN =           2.9000

          OUT:                                     OUT:
          ----                                     ----
     STORAGE-AQUEOUS =           6.2123       STORAGE-AQUEOUS =           0.8966     MST                              
                 RIV =           0.0000                   RIV =           0.0000     SSM_RIV-1                        
                 CHD =          13.3210                   CHD =           1.9260     SSM_CHD-1                        
                 CNC =           0.5356                   CNC =       7.7432E-02     CNC_0                            

           TOTAL OUT =          20.0690             TOTAL OUT =           2.9000

            IN - OUT =       1.6619E-09              IN - OUT =      -6.2093E-10

 PERCENT DISCREPANCY =           0.00     PERCENT DISCREPANCY =          -0.00




         TIME SUMMARY AT END OF TIME STEP   71 IN STRESS PERIOD    2
                    SECONDS     MINUTES      HOURS       DAYS        YEARS
                    -----------------------------------------------------------
   TIME STEP LENGTH  7200.0      120.00      2.0000     8.33333E-02 2.28154E-04
 STRESS PERIOD TIME 5.11200E+05  8520.0      142.00      5.9167     1.61990E-02
         TOTAL TIME 5.97600E+05  9960.0      166.00      6.9167     1.89368E-02


end timestep


start timestep kper="2" kstp="72" mode="normal"

 UBDSV1 SAVING  STORAGE-AQUEOUS ON UNIT   1029 AT TIME STEP     72, STRESS PERIOD      2
 UBDSV1 SAVING     FLOW-JA-FACE ON UNIT   1029 AT TIME STEP     72, STRESS PERIOD      2
 UBDSV06 SAVING  SOURCE-SINK MIX IN MODEL GWT_RIVERBASE    PACKAGE GWT_RIVERBASE   CONNECTED TO MODEL GWT_RIVERBASE    PACKAGE SSM              ON UNIT   1029 AT TIME STEP     72, STRESS PERIOD      2
 UBDSV06 SAVING              CNC IN MODEL GWT_RIVERBASE    PACKAGE GWT_RIVERBASE   CONNECTED TO MODEL GWT_RIVERBASE    PACKAGE CNC_0            ON UNIT   1029 AT TIME STEP     72, STRESS PERIOD      2
1
  CONCENTRATION IN LAYER   1 AT END OF TIME STEP  72 IN STRESS PERIOD    2
  ---------------------------------------------------------------------------

                1               2               3               4               5               6               7               8               9              10
 ................................................................................................................................................................
   1      1.00000         1.00000         1.00000         1.00000         1.00000         1.00000         1.00000         1.00000         1.00000         1.00000    
   2     0.999985         1.00000        0.999985         1.00000         1.00000         1.00000         1.00000         1.00000         1.00000         1.00000    
   3      1.00000        0.999985         1.00000         1.00000         1.00000         1.00000         1.00000         1.00000         1.00000         1.00000    
   4      1.00000         1.00000        0.999984         1.00000         1.00000         1.00000         1.00000         1.00000         1.00000         1.00000    
   5      1.00000         1.00002         1.00000        0.999984        0.999983         1.00000         1.00000         1.00000         1.00000         1.00000    
   6      1.00002         10.0000         1.00000        0.999983         1.00000        0.999982         1.00000         1.00000         1.00000         1.00000    
   7      1.00002         10.0000         1.00000         1.00000         1.00000         1.00000        0.999982         1.00000         1.00000         1.00000    
   8      1.00000         1.00002         1.00000         1.00000         1.00000         1.00000         1.00000        0.999982        0.999981         1.00000    
   9      1.00000         1.00000         1.00000         1.00000         1.00000         1.00000         1.00000        0.999981         1.00000         1.00000    
  10      1.00000         1.00000         1.00000         1.00000         1.00000         1.00000         1.00000         1.00000         1.00000         1.00000    
  11      1.00000         1.00000         1.00000         1.00000         1.00000         1.00000         1.00000         1.00000         1.00000         1.00000    
  12      1.00000         1.00000         1.00000         1.00000         1.00000         1.00000         1.00000         1.00000         1.00000         1.00000    
  13      1.00000         1.00000         1.00000         1.00000         1.00000         1.00000         1.00000         1.00000         1.00000         1.00000    
  14      1.00000         1.00000         1.00000         1.00000         1.00000         1.00000         1.00000         1.00000         1.00000         1.00000    
  15      1.00000         1.00000         1.00000         1.00000         1.00000         1.00000         1.00000         1.00000         1.00000         1.00000    
1
  CONCENTRATION IN LAYER   2 AT END OF TIME STEP  72 IN STRESS PERIOD    2
  ---------------------------------------------------------------------------

                1               2               3               4               5               6               7               8               9              10
 ................................................................................................................................................................
   1      1.00000         1.00000         1.00000         1.00000         1.00000         1.00000         1.00000         1.00000         1.00000         1.00000    
   2      1.00000         1.00000         1.00000         1.00000         1.00000         1.00000         1.00000         1.00000         1.00000         1.00000    
   3      1.00000         1.00000         1.00000         1.00000         1.00000         1.00000         1.00000         1.00000         1.00000         1.00000    
   4      1.00000         1.00000         1.00000         1.00000         1.00000         1.00000         1.00000         1.00000         1.00000         1.00000    
   5      1.00000         1.00000         1.00000         1.00000         1.00000         1.00000         1.00000         1.00000         1.00000         1.00000    
   6      1.00000         1.00001         1.00000         1.00000         1.00000         1.00000         1.00000         1.00000         1.00000         1.00000    
   7      1.00000         1.00000         1.00000         1.00000         1.00000         1.00000         1.00000         1.00000         1.00000         1.00000    
   8      1.00000         1.00000         1.00000         1.00000         1.00000         1.00000         1.00000         1.00000         1.00000         1.00000    
   9      1.00000         1.00000         1.00000         1.00000         1.00000         1.00000         1.00000         1.00000         1.00000         1.00000    
  10      1.00000         1.00000         1.00000         1.00000         1.00000         1.00000         1.00000         1.00000         1.00000         1.00000    
  11      1.00000         1.00000         1.00000         1.00000         1.00000         1.00000         1.00000         1.00000         1.00000         1.00000    
  12      1.00000         1.00000         1.00000         1.00000         1.00000         1.00000         1.00000         1.00000         1.00000         1.00000    
  13      1.00000         1.00000         1.00000         1.00000         1.00000         1.00000         1.00000         1.00000         1.00000         1.00000    
  14      1.00000         1.00000         1.00000         1.00000         1.00000         1.00000         1.00000         1.00000         1.00000         1.00000    
  15      1.00000         1.00000         1.00000         1.00000         1.00000         1.00000         1.00000         1.00000         1.00000         1.00000    
1
  CONCENTRATION IN LAYER   3 AT END OF TIME STEP  72 IN STRESS PERIOD    2
  ---------------------------------------------------------------------------

                1               2               3               4               5               6               7               8               9              10
 ................................................................................................................................................................
   1      1.00000         1.00000         1.00000         1.00000         1.00000         1.00000         1.00000         1.00000         1.00000         1.00000    
   2      1.00000         1.00000         1.00000         1.00000         1.00000         1.00000         1.00000         1.00000         1.00000         1.00000    
   3      1.00000         1.00000         1.00000         1.00000         1.00000         1.00000         1.00000         1.00000         1.00000         1.00000    
   4      1.00000         1.00000         1.00000         1.00000         1.00000         1.00000         1.00000         1.00000         1.00000         1.00000    
   5      1.00000         1.00000         1.00000         1.00000         1.00000         1.00000         1.00000         1.00000         1.00000         1.00000    
   6      1.00000         1.00000         1.00000         1.00000         1.00000         1.00000         1.00000         1.00000         1.00000         1.00000    
   7      1.00000         1.00000         1.00000         1.00000         1.00000         1.00000         1.00000         1.00000         1.00000         1.00000    
   8      1.00000         1.00000         1.00000         1.00000         1.00000         1.00000         1.00000         1.00000         1.00000         1.00000    
   9      1.00000         1.00000         1.00000         1.00000         1.00000         1.00000         1.00000         1.00000         1.00000         1.00000    
  10      1.00000         1.00000         1.00000         1.00000         1.00000         1.00000         1.00000         1.00000         1.00000         1.00000    
  11      1.00000         1.00000         1.00000         1.00000         1.00000         1.00000         1.00000         1.00000         1.00000         1.00000    
  12      1.00000         1.00000         1.00000         1.00000         1.00000         1.00000         1.00000         1.00000         1.00000         1.00000    
  13      1.00000         1.00000         1.00000         1.00000         1.00000         1.00000         1.00000         1.00000         1.00000         1.00000    
  14      1.00000         1.00000         1.00000         1.00000         1.00000         1.00000         1.00000         1.00000         1.00000         1.00000    
  15      1.00000         1.00000         1.00000         1.00000         1.00000         1.00000         1.00000         1.00000         1.00000         1.00000    

 CONCENTRATION WILL BE SAVED ON UNIT 1030 AT END OF TIME STEP   72, STRESS PERIOD    2


  MASS BUDGET FOR ENTIRE MODEL AT END OF TIME STEP   72, STRESS PERIOD   2
  ---------------------------------------------------------------------------------------------------

     CUMULATIVE MASS      M       RATES FOR THIS TIME STEP      M/T          PACKAGE NAME    
     ------------------                 ------------------------                     ----------------

           IN:                                      IN:
           ---                                      ---
     STORAGE-AQUEOUS =          14.3361       STORAGE-AQUEOUS =           2.0475     MST                              
                 RIV =           0.0000                   RIV =           0.0000     SSM_RIV-1                        
                 CHD =           0.0000                   CHD =           0.0000     SSM_CHD-1                        
                 CNC =           5.9745                   CNC =           0.8525     CNC_0                            

            TOTAL IN =          20.3106              TOTAL IN =           2.9000

          OUT:                                     OUT:
          ----                                     ----
     STORAGE-AQUEOUS =           6.2870       STORAGE-AQUEOUS =           0.8966     MST                              
                 RIV =           0.0000                   RIV =           0.0000     SSM_RIV-1                        
                 CHD =          13.4815                   CHD =           1.9260     SSM_CHD-1                        
                 CNC =           0.5421                   CNC =       7.7432E-02     CNC_0                            

           TOTAL OUT =          20.3106             TOTAL OUT =           2.9000

            IN - OUT =       1.8205E-09              IN - OUT =       1.9034E-09

 PERCENT DISCREPANCY =           0.00     PERCENT DISCREPANCY =           0.00




         TIME SUMMARY AT END OF TIME STEP   72 IN STRESS PERIOD    2
                    SECONDS     MINUTES      HOURS       DAYS        YEARS
                    -----------------------------------------------------------
   TIME STEP LENGTH  7200.0      120.00      2.0000     8.33333E-02 2.28154E-04
 STRESS PERIOD TIME 5.18400E+05  8640.0      144.00      6.0000     1.64271E-02
         TOTAL TIME 6.04800E+05  10080.      168.00      7.0000     1.91650E-02


end timestep


start timestep kper="2" kstp="73" mode="normal"

 UBDSV1 SAVING  STORAGE-AQUEOUS ON UNIT   1029 AT TIME STEP     73, STRESS PERIOD      2
 UBDSV1 SAVING     FLOW-JA-FACE ON UNIT   1029 AT TIME STEP     73, STRESS PERIOD      2
 UBDSV06 SAVING  SOURCE-SINK MIX IN MODEL GWT_RIVERBASE    PACKAGE GWT_RIVERBASE   CONNECTED TO MODEL GWT_RIVERBASE    PACKAGE SSM              ON UNIT   1029 AT TIME STEP     73, STRESS PERIOD      2
 UBDSV06 SAVING              CNC IN MODEL GWT_RIVERBASE    PACKAGE GWT_RIVERBASE   CONNECTED TO MODEL GWT_RIVERBASE    PACKAGE CNC_0            ON UNIT   1029 AT TIME STEP     73, STRESS PERIOD      2
1
  CONCENTRATION IN LAYER   1 AT END OF TIME STEP  73 IN STRESS PERIOD    2
  ---------------------------------------------------------------------------

                1               2               3               4               5               6               7               8               9              10
 ................................................................................................................................................................
   1      1.00000         1.00000         1.00000         1.00000         1.00000         1.00000         1.00000         1.00000         1.00000         1.00000    
   2     0.999985         1.00000        0.999985         1.00000         1.00000         1.00000         1.00000         1.00000         1.00000         1.00000    
   3      1.00000        0.999984         1.00000         1.00000         1.00000         1.00000         1.00000         1.00000         1.00000         1.00000    
   4      1.00000         1.00000        0.999984         1.00000         1.00000         1.00000         1.00000         1.00000         1.00000         1.00000    
   5      1.00000         1.00002         1.00000        0.999984        0.999983         1.00000         1.00000         1.00000         1.00000         1.00000    
   6      1.00002         10.0000         1.00000        0.999983         1.00000        0.999982         1.00000         1.00000         1.00000         1.00000    
   7      1.00002         10.0000         1.00000         1.00000         1.00000         1.00000        0.999982         1.00000         1.00000         1.00000    
   8      1.00000         1.00002         1.00000         1.00000         1.00000         1.00000         1.00000        0.999981        0.999980         1.00000    
   9      1.00000         1.00000         1.00000         1.00000         1.00000         1.00000         1.00000        0.999981         1.00000         1.00000    
  10      1.00000         1.00000         1.00000         1.00000         1.00000         1.00000         1.00000         1.00000         1.00000         1.00000    
  11      1.00000         1.00000         1.00000         1.00000         1.00000         1.00000         1.00000         1.00000         1.00000         1.00000    
  12      1.00000         1.00000         1.00000         1.00000         1.00000         1.00000         1.00000         1.00000         1.00000         1.00000    
  13      1.00000         1.00000         1.00000         1.00000         1.00000         1.00000         1.00000         1.00000         1.00000         1.00000    
  14      1.00000         1.00000         1.00000         1.00000         1.00000         1.00000         1.00000         1.00000         1.00000         1.00000    
  15      1.00000         1.00000         1.00000         1.00000         1.00000         1.00000         1.00000         1.00000         1.00000         1.00000    
1
  CONCENTRATION IN LAYER   2 AT END OF TIME STEP  73 IN STRESS PERIOD    2
  ---------------------------------------------------------------------------

                1               2               3               4               5               6               7               8               9              10
 ................................................................................................................................................................
   1      1.00000         1.00000         1.00000         1.00000         1.00000         1.00000         1.00000         1.00000         1.00000         1.00000    
   2      1.00000         1.00000         1.00000         1.00000         1.00000         1.00000         1.00000         1.00000         1.00000         1.00000    
   3      1.00000         1.00000         1.00000         1.00000         1.00000         1.00000         1.00000         1.00000         1.00000         1.00000    
   4      1.00000         1.00000         1.00000         1.00000         1.00000         1.00000         1.00000         1.00000         1.00000         1.00000    
   5      1.00000         1.00000         1.00000         1.00000         1.00000         1.00000         1.00000         1.00000         1.00000         1.00000    
   6      1.00000         1.00001         1.00000         1.00000         1.00000         1.00000         1.00000         1.00000         1.00000         1.00000    
   7      1.00000         1.00000         1.00000         1.00000         1.00000         1.00000         1.00000         1.00000         1.00000         1.00000    
   8      1.00000         1.00000         1.00000         1.00000         1.00000         1.00000         1.00000         1.00000         1.00000         1.00000    
   9      1.00000         1.00000         1.00000         1.00000         1.00000         1.00000         1.00000         1.00000         1.00000         1.00000    
  10      1.00000         1.00000         1.00000         1.00000         1.00000         1.00000         1.00000         1.00000         1.00000         1.00000    
  11      1.00000         1.00000         1.00000         1.00000         1.00000         1.00000         1.00000         1.00000         1.00000         1.00000    
  12      1.00000         1.00000         1.00000         1.00000         1.00000         1.00000         1.00000         1.00000         1.00000         1.00000    
  13      1.00000         1.00000         1.00000         1.00000         1.00000         1.00000         1.00000         1.00000         1.00000         1.00000    
  14      1.00000         1.00000         1.00000         1.00000         1.00000         1.00000         1.00000         1.00000         1.00000         1.00000    
  15      1.00000         1.00000         1.00000         1.00000         1.00000         1.00000         1.00000         1.00000         1.00000         1.00000    
1
  CONCENTRATION IN LAYER   3 AT END OF TIME STEP  73 IN STRESS PERIOD    2
  ---------------------------------------------------------------------------

                1               2               3               4               5               6               7               8               9              10
 ................................................................................................................................................................
   1      1.00000         1.00000         1.00000         1.00000         1.00000         1.00000         1.00000         1.00000         1.00000         1.00000    
   2      1.00000         1.00000         1.00000         1.00000         1.00000         1.00000         1.00000         1.00000         1.00000         1.00000    
   3      1.00000         1.00000         1.00000         1.00000         1.00000         1.00000         1.00000         1.00000         1.00000         1.00000    
   4      1.00000         1.00000         1.00000         1.00000         1.00000         1.00000         1.00000         1.00000         1.00000         1.00000    
   5      1.00000         1.00000         1.00000         1.00000         1.00000         1.00000         1.00000         1.00000         1.00000         1.00000    
   6      1.00000         1.00000         1.00000         1.00000         1.00000         1.00000         1.00000         1.00000         1.00000         1.00000    
   7      1.00000         1.00000         1.00000         1.00000         1.00000         1.00000         1.00000         1.00000         1.00000         1.00000    
   8      1.00000         1.00000         1.00000         1.00000         1.00000         1.00000         1.00000         1.00000         1.00000         1.00000    
   9      1.00000         1.00000         1.00000         1.00000         1.00000         1.00000         1.00000         1.00000         1.00000         1.00000    
  10      1.00000         1.00000         1.00000         1.00000         1.00000         1.00000         1.00000         1.00000         1.00000         1.00000    
  11      1.00000         1.00000         1.00000         1.00000         1.00000         1.00000         1.00000         1.00000         1.00000         1.00000    
  12      1.00000         1.00000         1.00000         1.00000         1.00000         1.00000         1.00000         1.00000         1.00000         1.00000    
  13      1.00000         1.00000         1.00000         1.00000         1.00000         1.00000         1.00000         1.00000         1.00000         1.00000    
  14      1.00000         1.00000         1.00000         1.00000         1.00000         1.00000         1.00000         1.00000         1.00000         1.00000    
  15      1.00000         1.00000         1.00000         1.00000         1.00000         1.00000         1.00000         1.00000         1.00000         1.00000    

 CONCENTRATION WILL BE SAVED ON UNIT 1030 AT END OF TIME STEP   73, STRESS PERIOD    2


  MASS BUDGET FOR ENTIRE MODEL AT END OF TIME STEP   73, STRESS PERIOD   2
  ---------------------------------------------------------------------------------------------------

     CUMULATIVE MASS      M       RATES FOR THIS TIME STEP      M/T          PACKAGE NAME    
     ------------------                 ------------------------                     ----------------

           IN:                                      IN:
           ---                                      ---
     STORAGE-AQUEOUS =          14.5067       STORAGE-AQUEOUS =           2.0475     MST                              
                 RIV =           0.0000                   RIV =           0.0000     SSM_RIV-1                        
                 CHD =           0.0000                   CHD =           0.0000     SSM_CHD-1                        
                 CNC =           6.0456                   CNC =           0.8525     CNC_0                            

            TOTAL IN =          20.5523              TOTAL IN =           2.9000

          OUT:                                     OUT:
          ----                                     ----
     STORAGE-AQUEOUS =           6.3617       STORAGE-AQUEOUS =           0.8966     MST                              
                 RIV =           0.0000                   RIV =           0.0000     SSM_RIV-1                        
                 CHD =          13.6420                   CHD =           1.9260     SSM_CHD-1                        
                 CNC =           0.5485                   CNC =       7.7432E-02     CNC_0                            

           TOTAL OUT =          20.5523             TOTAL OUT =           2.9000

            IN - OUT =       1.9308E-09              IN - OUT =       1.3237E-09

 PERCENT DISCREPANCY =           0.00     PERCENT DISCREPANCY =           0.00




         TIME SUMMARY AT END OF TIME STEP   73 IN STRESS PERIOD    2
                    SECONDS     MINUTES      HOURS       DAYS        YEARS
                    -----------------------------------------------------------
   TIME STEP LENGTH  7200.0      120.00      2.0000     8.33333E-02 2.28154E-04
 STRESS PERIOD TIME 5.25600E+05  8760.0      146.00      6.0833     1.66553E-02
         TOTAL TIME 6.12000E+05  10200.      170.00      7.0833     1.93931E-02


end timestep


start timestep kper="2" kstp="74" mode="normal"

 UBDSV1 SAVING  STORAGE-AQUEOUS ON UNIT   1029 AT TIME STEP     74, STRESS PERIOD      2
 UBDSV1 SAVING     FLOW-JA-FACE ON UNIT   1029 AT TIME STEP     74, STRESS PERIOD      2
 UBDSV06 SAVING  SOURCE-SINK MIX IN MODEL GWT_RIVERBASE    PACKAGE GWT_RIVERBASE   CONNECTED TO MODEL GWT_RIVERBASE    PACKAGE SSM              ON UNIT   1029 AT TIME STEP     74, STRESS PERIOD      2
 UBDSV06 SAVING              CNC IN MODEL GWT_RIVERBASE    PACKAGE GWT_RIVERBASE   CONNECTED TO MODEL GWT_RIVERBASE    PACKAGE CNC_0            ON UNIT   1029 AT TIME STEP     74, STRESS PERIOD      2
1
  CONCENTRATION IN LAYER   1 AT END OF TIME STEP  74 IN STRESS PERIOD    2
  ---------------------------------------------------------------------------

                1               2               3               4               5               6               7               8               9              10
 ................................................................................................................................................................
   1      1.00000         1.00000         1.00000         1.00000         1.00000         1.00000         1.00000         1.00000         1.00000         1.00000    
   2     0.999985         1.00000        0.999985         1.00000         1.00000         1.00000         1.00000         1.00000         1.00000         1.00000    
   3      1.00000        0.999984         1.00000         1.00000         1.00000         1.00000         1.00000         1.00000         1.00000         1.00000    
   4      1.00000         1.00000        0.999984         1.00000         1.00000         1.00000         1.00000         1.00000         1.00000         1.00000    
   5      1.00000         1.00002         1.00000        0.999983        0.999982         1.00000         1.00000         1.00000         1.00000         1.00000    
   6      1.00002         10.0000         1.00000        0.999983         1.00000        0.999982         1.00000         1.00000         1.00000         1.00000    
   7      1.00002         10.0000         1.00000         1.00000         1.00000         1.00000        0.999982         1.00000         1.00000         1.00000    
   8      1.00000         1.00002         1.00000         1.00000         1.00000         1.00000         1.00000        0.999981        0.999980         1.00000    
   9      1.00000         1.00000         1.00000         1.00000         1.00000         1.00000         1.00000        0.999981         1.00000         1.00000    
  10      1.00000         1.00000         1.00000         1.00000         1.00000         1.00000         1.00000         1.00000         1.00000         1.00000    
  11      1.00000         1.00000         1.00000         1.00000         1.00000         1.00000         1.00000         1.00000         1.00000         1.00000    
  12      1.00000         1.00000         1.00000         1.00000         1.00000         1.00000         1.00000         1.00000         1.00000         1.00000    
  13      1.00000         1.00000         1.00000         1.00000         1.00000         1.00000         1.00000         1.00000         1.00000         1.00000    
  14      1.00000         1.00000         1.00000         1.00000         1.00000         1.00000         1.00000         1.00000         1.00000         1.00000    
  15      1.00000         1.00000         1.00000         1.00000         1.00000         1.00000         1.00000         1.00000         1.00000         1.00000    
1
  CONCENTRATION IN LAYER   2 AT END OF TIME STEP  74 IN STRESS PERIOD    2
  ---------------------------------------------------------------------------

                1               2               3               4               5               6               7               8               9              10
 ................................................................................................................................................................
   1      1.00000         1.00000         1.00000         1.00000         1.00000         1.00000         1.00000         1.00000         1.00000         1.00000    
   2      1.00000         1.00000         1.00000         1.00000         1.00000         1.00000         1.00000         1.00000         1.00000         1.00000    
   3      1.00000         1.00000         1.00000         1.00000         1.00000         1.00000         1.00000         1.00000         1.00000         1.00000    
   4      1.00000         1.00000         1.00000         1.00000         1.00000         1.00000         1.00000         1.00000         1.00000         1.00000    
   5      1.00000         1.00000         1.00000         1.00000         1.00000         1.00000         1.00000         1.00000         1.00000         1.00000    
   6      1.00000         1.00001         1.00000         1.00000         1.00000         1.00000         1.00000         1.00000         1.00000         1.00000    
   7      1.00000         1.00000         1.00000         1.00000         1.00000         1.00000         1.00000         1.00000         1.00000         1.00000    
   8      1.00000         1.00000         1.00000         1.00000         1.00000         1.00000         1.00000         1.00000         1.00000         1.00000    
   9      1.00000         1.00000         1.00000         1.00000         1.00000         1.00000         1.00000         1.00000         1.00000         1.00000    
  10      1.00000         1.00000         1.00000         1.00000         1.00000         1.00000         1.00000         1.00000         1.00000         1.00000    
  11      1.00000         1.00000         1.00000         1.00000         1.00000         1.00000         1.00000         1.00000         1.00000         1.00000    
  12      1.00000         1.00000         1.00000         1.00000         1.00000         1.00000         1.00000         1.00000         1.00000         1.00000    
  13      1.00000         1.00000         1.00000         1.00000         1.00000         1.00000         1.00000         1.00000         1.00000         1.00000    
  14      1.00000         1.00000         1.00000         1.00000         1.00000         1.00000         1.00000         1.00000         1.00000         1.00000    
  15      1.00000         1.00000         1.00000         1.00000         1.00000         1.00000         1.00000         1.00000         1.00000         1.00000    
1
  CONCENTRATION IN LAYER   3 AT END OF TIME STEP  74 IN STRESS PERIOD    2
  ---------------------------------------------------------------------------

                1               2               3               4               5               6               7               8               9              10
 ................................................................................................................................................................
   1      1.00000         1.00000         1.00000         1.00000         1.00000         1.00000         1.00000         1.00000         1.00000         1.00000    
   2      1.00000         1.00000         1.00000         1.00000         1.00000         1.00000         1.00000         1.00000         1.00000         1.00000    
   3      1.00000         1.00000         1.00000         1.00000         1.00000         1.00000         1.00000         1.00000         1.00000         1.00000    
   4      1.00000         1.00000         1.00000         1.00000         1.00000         1.00000         1.00000         1.00000         1.00000         1.00000    
   5      1.00000         1.00000         1.00000         1.00000         1.00000         1.00000         1.00000         1.00000         1.00000         1.00000    
   6      1.00000         1.00000         1.00000         1.00000         1.00000         1.00000         1.00000         1.00000         1.00000         1.00000    
   7      1.00000         1.00000         1.00000         1.00000         1.00000         1.00000         1.00000         1.00000         1.00000         1.00000    
   8      1.00000         1.00000         1.00000         1.00000         1.00000         1.00000         1.00000         1.00000         1.00000         1.00000    
   9      1.00000         1.00000         1.00000         1.00000         1.00000         1.00000         1.00000         1.00000         1.00000         1.00000    
  10      1.00000         1.00000         1.00000         1.00000         1.00000         1.00000         1.00000         1.00000         1.00000         1.00000    
  11      1.00000         1.00000         1.00000         1.00000         1.00000         1.00000         1.00000         1.00000         1.00000         1.00000    
  12      1.00000         1.00000         1.00000         1.00000         1.00000         1.00000         1.00000         1.00000         1.00000         1.00000    
  13      1.00000         1.00000         1.00000         1.00000         1.00000         1.00000         1.00000         1.00000         1.00000         1.00000    
  14      1.00000         1.00000         1.00000         1.00000         1.00000         1.00000         1.00000         1.00000         1.00000         1.00000    
  15      1.00000         1.00000         1.00000         1.00000         1.00000         1.00000         1.00000         1.00000         1.00000         1.00000    

 CONCENTRATION WILL BE SAVED ON UNIT 1030 AT END OF TIME STEP   74, STRESS PERIOD    2


  MASS BUDGET FOR ENTIRE MODEL AT END OF TIME STEP   74, STRESS PERIOD   2
  ---------------------------------------------------------------------------------------------------

     CUMULATIVE MASS      M       RATES FOR THIS TIME STEP      M/T          PACKAGE NAME    
     ------------------                 ------------------------                     ----------------

           IN:                                      IN:
           ---                                      ---
     STORAGE-AQUEOUS =          14.6774       STORAGE-AQUEOUS =           2.0475     MST                              
                 RIV =           0.0000                   RIV =           0.0000     SSM_RIV-1                        
                 CHD =           0.0000                   CHD =           0.0000     SSM_CHD-1                        
                 CNC =           6.1166                   CNC =           0.8525     CNC_0                            

            TOTAL IN =          20.7940              TOTAL IN =           2.9000

          OUT:                                     OUT:
          ----                                     ----
     STORAGE-AQUEOUS =           6.4365       STORAGE-AQUEOUS =           0.8966     MST                              
                 RIV =           0.0000                   RIV =           0.0000     SSM_RIV-1                        
                 CHD =          13.8025                   CHD =           1.9260     SSM_CHD-1                        
                 CNC =           0.5550                   CNC =       7.7432E-02     CNC_0                            

           TOTAL OUT =          20.7940             TOTAL OUT =           2.9000

            IN - OUT =       1.8823E-09              IN - OUT =      -5.8211E-10

 PERCENT DISCREPANCY =           0.00     PERCENT DISCREPANCY =          -0.00




         TIME SUMMARY AT END OF TIME STEP   74 IN STRESS PERIOD    2
                    SECONDS     MINUTES      HOURS       DAYS        YEARS
                    -----------------------------------------------------------
   TIME STEP LENGTH  7200.0      120.00      2.0000     8.33333E-02 2.28154E-04
 STRESS PERIOD TIME 5.32800E+05  8880.0      148.00      6.1667     1.68834E-02
         TOTAL TIME 6.19200E+05  10320.      172.00      7.1667     1.96213E-02


end timestep


start timestep kper="2" kstp="75" mode="normal"

 UBDSV1 SAVING  STORAGE-AQUEOUS ON UNIT   1029 AT TIME STEP     75, STRESS PERIOD      2
 UBDSV1 SAVING     FLOW-JA-FACE ON UNIT   1029 AT TIME STEP     75, STRESS PERIOD      2
 UBDSV06 SAVING  SOURCE-SINK MIX IN MODEL GWT_RIVERBASE    PACKAGE GWT_RIVERBASE   CONNECTED TO MODEL GWT_RIVERBASE    PACKAGE SSM              ON UNIT   1029 AT TIME STEP     75, STRESS PERIOD      2
 UBDSV06 SAVING              CNC IN MODEL GWT_RIVERBASE    PACKAGE GWT_RIVERBASE   CONNECTED TO MODEL GWT_RIVERBASE    PACKAGE CNC_0            ON UNIT   1029 AT TIME STEP     75, STRESS PERIOD      2
1
  CONCENTRATION IN LAYER   1 AT END OF TIME STEP  75 IN STRESS PERIOD    2
  ---------------------------------------------------------------------------

                1               2               3               4               5               6               7               8               9              10
 ................................................................................................................................................................
   1      1.00000         1.00000         1.00000         1.00000         1.00000         1.00000         1.00000         1.00000         1.00000         1.00000    
   2     0.999985         1.00000        0.999984         1.00000         1.00000         1.00000         1.00000         1.00000         1.00000         1.00000    
   3      1.00000        0.999984         1.00000         1.00000         1.00000         1.00000         1.00000         1.00000         1.00000         1.00000    
   4      1.00000         1.00000        0.999984         1.00000         1.00000         1.00000         1.00000         1.00000         1.00000         1.00000    
   5      1.00000         1.00002         1.00000        0.999983        0.999982         1.00000         1.00000         1.00000         1.00000         1.00000    
   6      1.00002         10.0000         1.00000        0.999983         1.00000        0.999982         1.00000         1.00000         1.00000         1.00000    
   7      1.00002         10.0000         1.00000         1.00000         1.00000         1.00000        0.999981         1.00000         1.00000         1.00000    
   8      1.00000         1.00002         1.00000         1.00000         1.00000         1.00000         1.00000        0.999981        0.999980         1.00000    
   9      1.00000         1.00000         1.00000         1.00000         1.00000         1.00000         1.00000        0.999980         1.00000         1.00000    
  10      1.00000         1.00000         1.00000         1.00000         1.00000         1.00000         1.00000         1.00000         1.00000         1.00000    
  11      1.00000         1.00000         1.00000         1.00000         1.00000         1.00000         1.00000         1.00000         1.00000         1.00000    
  12      1.00000         1.00000         1.00000         1.00000         1.00000         1.00000         1.00000         1.00000         1.00000         1.00000    
  13      1.00000         1.00000         1.00000         1.00000         1.00000         1.00000         1.00000         1.00000         1.00000         1.00000    
  14      1.00000         1.00000         1.00000         1.00000         1.00000         1.00000         1.00000         1.00000         1.00000         1.00000    
  15      1.00000         1.00000         1.00000         1.00000         1.00000         1.00000         1.00000         1.00000         1.00000         1.00000    
1
  CONCENTRATION IN LAYER   2 AT END OF TIME STEP  75 IN STRESS PERIOD    2
  ---------------------------------------------------------------------------

                1               2               3               4               5               6               7               8               9              10
 ................................................................................................................................................................
   1      1.00000         1.00000         1.00000         1.00000         1.00000         1.00000         1.00000         1.00000         1.00000         1.00000    
   2      1.00000         1.00000         1.00000         1.00000         1.00000         1.00000         1.00000         1.00000         1.00000         1.00000    
   3      1.00000         1.00000         1.00000         1.00000         1.00000         1.00000         1.00000         1.00000         1.00000         1.00000    
   4      1.00000         1.00000         1.00000         1.00000         1.00000         1.00000         1.00000         1.00000         1.00000         1.00000    
   5      1.00000         1.00000         1.00000         1.00000         1.00000         1.00000         1.00000         1.00000         1.00000         1.00000    
   6      1.00000         1.00001         1.00000         1.00000         1.00000         1.00000         1.00000         1.00000         1.00000         1.00000    
   7      1.00000         1.00000         1.00000         1.00000         1.00000         1.00000         1.00000         1.00000         1.00000         1.00000    
   8      1.00000         1.00000         1.00000         1.00000         1.00000         1.00000         1.00000         1.00000         1.00000         1.00000    
   9      1.00000         1.00000         1.00000         1.00000         1.00000         1.00000         1.00000         1.00000         1.00000         1.00000    
  10      1.00000         1.00000         1.00000         1.00000         1.00000         1.00000         1.00000         1.00000         1.00000         1.00000    
  11      1.00000         1.00000         1.00000         1.00000         1.00000         1.00000         1.00000         1.00000         1.00000         1.00000    
  12      1.00000         1.00000         1.00000         1.00000         1.00000         1.00000         1.00000         1.00000         1.00000         1.00000    
  13      1.00000         1.00000         1.00000         1.00000         1.00000         1.00000         1.00000         1.00000         1.00000         1.00000    
  14      1.00000         1.00000         1.00000         1.00000         1.00000         1.00000         1.00000         1.00000         1.00000         1.00000    
  15      1.00000         1.00000         1.00000         1.00000         1.00000         1.00000         1.00000         1.00000         1.00000         1.00000    
1
  CONCENTRATION IN LAYER   3 AT END OF TIME STEP  75 IN STRESS PERIOD    2
  ---------------------------------------------------------------------------

                1               2               3               4               5               6               7               8               9              10
 ................................................................................................................................................................
   1      1.00000         1.00000         1.00000         1.00000         1.00000         1.00000         1.00000         1.00000         1.00000         1.00000    
   2      1.00000         1.00000         1.00000         1.00000         1.00000         1.00000         1.00000         1.00000         1.00000         1.00000    
   3      1.00000         1.00000         1.00000         1.00000         1.00000         1.00000         1.00000         1.00000         1.00000         1.00000    
   4      1.00000         1.00000         1.00000         1.00000         1.00000         1.00000         1.00000         1.00000         1.00000         1.00000    
   5      1.00000         1.00000         1.00000         1.00000         1.00000         1.00000         1.00000         1.00000         1.00000         1.00000    
   6      1.00000         1.00000         1.00000         1.00000         1.00000         1.00000         1.00000         1.00000         1.00000         1.00000    
   7      1.00000         1.00000         1.00000         1.00000         1.00000         1.00000         1.00000         1.00000         1.00000         1.00000    
   8      1.00000         1.00000         1.00000         1.00000         1.00000         1.00000         1.00000         1.00000         1.00000         1.00000    
   9      1.00000         1.00000         1.00000         1.00000         1.00000         1.00000         1.00000         1.00000         1.00000         1.00000    
  10      1.00000         1.00000         1.00000         1.00000         1.00000         1.00000         1.00000         1.00000         1.00000         1.00000    
  11      1.00000         1.00000         1.00000         1.00000         1.00000         1.00000         1.00000         1.00000         1.00000         1.00000    
  12      1.00000         1.00000         1.00000         1.00000         1.00000         1.00000         1.00000         1.00000         1.00000         1.00000    
  13      1.00000         1.00000         1.00000         1.00000         1.00000         1.00000         1.00000         1.00000         1.00000         1.00000    
  14      1.00000         1.00000         1.00000         1.00000         1.00000         1.00000         1.00000         1.00000         1.00000         1.00000    
  15      1.00000         1.00000         1.00000         1.00000         1.00000         1.00000         1.00000         1.00000         1.00000         1.00000    

 CONCENTRATION WILL BE SAVED ON UNIT 1030 AT END OF TIME STEP   75, STRESS PERIOD    2


  MASS BUDGET FOR ENTIRE MODEL AT END OF TIME STEP   75, STRESS PERIOD   2
  ---------------------------------------------------------------------------------------------------

     CUMULATIVE MASS      M       RATES FOR THIS TIME STEP      M/T          PACKAGE NAME    
     ------------------                 ------------------------                     ----------------

           IN:                                      IN:
           ---                                      ---
     STORAGE-AQUEOUS =          14.8480       STORAGE-AQUEOUS =           2.0475     MST                              
                 RIV =           0.0000                   RIV =           0.0000     SSM_RIV-1                        
                 CHD =           0.0000                   CHD =           0.0000     SSM_CHD-1                        
                 CNC =           6.1877                   CNC =           0.8525     CNC_0                            

            TOTAL IN =          21.0356              TOTAL IN =           2.9000

          OUT:                                     OUT:
          ----                                     ----
     STORAGE-AQUEOUS =           6.5112       STORAGE-AQUEOUS =           0.8966     MST                              
                 RIV =           0.0000                   RIV =           0.0000     SSM_RIV-1                        
                 CHD =          13.9630                   CHD =           1.9260     SSM_CHD-1                        
                 CNC =           0.5614                   CNC =       7.7432E-02     CNC_0                            

           TOTAL OUT =          21.0356             TOTAL OUT =           2.9000

            IN - OUT =       2.0183E-09              IN - OUT =       1.6314E-09

 PERCENT DISCREPANCY =           0.00     PERCENT DISCREPANCY =           0.00




         TIME SUMMARY AT END OF TIME STEP   75 IN STRESS PERIOD    2
                    SECONDS     MINUTES      HOURS       DAYS        YEARS
                    -----------------------------------------------------------
   TIME STEP LENGTH  7200.0      120.00      2.0000     8.33333E-02 2.28154E-04
 STRESS PERIOD TIME 5.40000E+05  9000.0      150.00      6.2500     1.71116E-02
         TOTAL TIME 6.26400E+05  10440.      174.00      7.2500     1.98494E-02


end timestep


start timestep kper="2" kstp="76" mode="normal"

 UBDSV1 SAVING  STORAGE-AQUEOUS ON UNIT   1029 AT TIME STEP     76, STRESS PERIOD      2
 UBDSV1 SAVING     FLOW-JA-FACE ON UNIT   1029 AT TIME STEP     76, STRESS PERIOD      2
 UBDSV06 SAVING  SOURCE-SINK MIX IN MODEL GWT_RIVERBASE    PACKAGE GWT_RIVERBASE   CONNECTED TO MODEL GWT_RIVERBASE    PACKAGE SSM              ON UNIT   1029 AT TIME STEP     76, STRESS PERIOD      2
 UBDSV06 SAVING              CNC IN MODEL GWT_RIVERBASE    PACKAGE GWT_RIVERBASE   CONNECTED TO MODEL GWT_RIVERBASE    PACKAGE CNC_0            ON UNIT   1029 AT TIME STEP     76, STRESS PERIOD      2
1
  CONCENTRATION IN LAYER   1 AT END OF TIME STEP  76 IN STRESS PERIOD    2
  ---------------------------------------------------------------------------

                1               2               3               4               5               6               7               8               9              10
 ................................................................................................................................................................
   1      1.00000         1.00000         1.00000         1.00000         1.00000         1.00000         1.00000         1.00000         1.00000         1.00000    
   2     0.999985         1.00000        0.999984         1.00000         1.00000         1.00000         1.00000         1.00000         1.00000         1.00000    
   3      1.00000        0.999984         1.00000         1.00000         1.00000         1.00000         1.00000         1.00000         1.00000         1.00000    
   4      1.00000         1.00000        0.999983         1.00000         1.00000         1.00000         1.00000         1.00000         1.00000         1.00000    
   5      1.00000         1.00002         1.00000        0.999983        0.999982         1.00000         1.00000         1.00000         1.00000         1.00000    
   6      1.00003         10.0000         1.00000        0.999983         1.00000        0.999982         1.00000         1.00000         1.00000         1.00000    
   7      1.00002         10.0000         1.00000         1.00000         1.00000         1.00000        0.999981         1.00000         1.00000         1.00000    
   8      1.00000         1.00002         1.00000         1.00000         1.00000         1.00000         1.00000        0.999981        0.999980         1.00000    
   9      1.00000         1.00000         1.00000         1.00000         1.00000         1.00000         1.00000        0.999980         1.00000         1.00000    
  10      1.00000         1.00000         1.00000         1.00000         1.00000         1.00000         1.00000         1.00000         1.00000         1.00000    
  11      1.00000         1.00000         1.00000         1.00000         1.00000         1.00000         1.00000         1.00000         1.00000         1.00000    
  12      1.00000         1.00000         1.00000         1.00000         1.00000         1.00000         1.00000         1.00000         1.00000         1.00000    
  13      1.00000         1.00000         1.00000         1.00000         1.00000         1.00000         1.00000         1.00000         1.00000         1.00000    
  14      1.00000         1.00000         1.00000         1.00000         1.00000         1.00000         1.00000         1.00000         1.00000         1.00000    
  15      1.00000         1.00000         1.00000         1.00000         1.00000         1.00000         1.00000         1.00000         1.00000         1.00000    
1
  CONCENTRATION IN LAYER   2 AT END OF TIME STEP  76 IN STRESS PERIOD    2
  ---------------------------------------------------------------------------

                1               2               3               4               5               6               7               8               9              10
 ................................................................................................................................................................
   1      1.00000         1.00000         1.00000         1.00000         1.00000         1.00000         1.00000         1.00000         1.00000         1.00000    
   2      1.00000         1.00000         1.00000         1.00000         1.00000         1.00000         1.00000         1.00000         1.00000         1.00000    
   3      1.00000         1.00000         1.00000         1.00000         1.00000         1.00000         1.00000         1.00000         1.00000         1.00000    
   4      1.00000         1.00000         1.00000         1.00000         1.00000         1.00000         1.00000         1.00000         1.00000         1.00000    
   5      1.00000         1.00000         1.00000         1.00000         1.00000         1.00000         1.00000         1.00000         1.00000         1.00000    
   6      1.00000         1.00001         1.00000         1.00000         1.00000         1.00000         1.00000         1.00000         1.00000         1.00000    
   7      1.00000         1.00000         1.00000         1.00000         1.00000         1.00000         1.00000         1.00000         1.00000         1.00000    
   8      1.00000         1.00000         1.00000         1.00000         1.00000         1.00000         1.00000         1.00000         1.00000         1.00000    
   9      1.00000         1.00000         1.00000         1.00000         1.00000         1.00000         1.00000         1.00000         1.00000         1.00000    
  10      1.00000         1.00000         1.00000         1.00000         1.00000         1.00000         1.00000         1.00000         1.00000         1.00000    
  11      1.00000         1.00000         1.00000         1.00000         1.00000         1.00000         1.00000         1.00000         1.00000         1.00000    
  12      1.00000         1.00000         1.00000         1.00000         1.00000         1.00000         1.00000         1.00000         1.00000         1.00000    
  13      1.00000         1.00000         1.00000         1.00000         1.00000         1.00000         1.00000         1.00000         1.00000         1.00000    
  14      1.00000         1.00000         1.00000         1.00000         1.00000         1.00000         1.00000         1.00000         1.00000         1.00000    
  15      1.00000         1.00000         1.00000         1.00000         1.00000         1.00000         1.00000         1.00000         1.00000         1.00000    
1
  CONCENTRATION IN LAYER   3 AT END OF TIME STEP  76 IN STRESS PERIOD    2
  ---------------------------------------------------------------------------

                1               2               3               4               5               6               7               8               9              10
 ................................................................................................................................................................
   1      1.00000         1.00000         1.00000         1.00000         1.00000         1.00000         1.00000         1.00000         1.00000         1.00000    
   2      1.00000         1.00000         1.00000         1.00000         1.00000         1.00000         1.00000         1.00000         1.00000         1.00000    
   3      1.00000         1.00000         1.00000         1.00000         1.00000         1.00000         1.00000         1.00000         1.00000         1.00000    
   4      1.00000         1.00000         1.00000         1.00000         1.00000         1.00000         1.00000         1.00000         1.00000         1.00000    
   5      1.00000         1.00000         1.00000         1.00000         1.00000         1.00000         1.00000         1.00000         1.00000         1.00000    
   6      1.00000         1.00000         1.00000         1.00000         1.00000         1.00000         1.00000         1.00000         1.00000         1.00000    
   7      1.00000         1.00000         1.00000         1.00000         1.00000         1.00000         1.00000         1.00000         1.00000         1.00000    
   8      1.00000         1.00000         1.00000         1.00000         1.00000         1.00000         1.00000         1.00000         1.00000         1.00000    
   9      1.00000         1.00000         1.00000         1.00000         1.00000         1.00000         1.00000         1.00000         1.00000         1.00000    
  10      1.00000         1.00000         1.00000         1.00000         1.00000         1.00000         1.00000         1.00000         1.00000         1.00000    
  11      1.00000         1.00000         1.00000         1.00000         1.00000         1.00000         1.00000         1.00000         1.00000         1.00000    
  12      1.00000         1.00000         1.00000         1.00000         1.00000         1.00000         1.00000         1.00000         1.00000         1.00000    
  13      1.00000         1.00000         1.00000         1.00000         1.00000         1.00000         1.00000         1.00000         1.00000         1.00000    
  14      1.00000         1.00000         1.00000         1.00000         1.00000         1.00000         1.00000         1.00000         1.00000         1.00000    
  15      1.00000         1.00000         1.00000         1.00000         1.00000         1.00000         1.00000         1.00000         1.00000         1.00000    

 CONCENTRATION WILL BE SAVED ON UNIT 1030 AT END OF TIME STEP   76, STRESS PERIOD    2


  MASS BUDGET FOR ENTIRE MODEL AT END OF TIME STEP   76, STRESS PERIOD   2
  ---------------------------------------------------------------------------------------------------

     CUMULATIVE MASS      M       RATES FOR THIS TIME STEP      M/T          PACKAGE NAME    
     ------------------                 ------------------------                     ----------------

           IN:                                      IN:
           ---                                      ---
     STORAGE-AQUEOUS =          15.0186       STORAGE-AQUEOUS =           2.0475     MST                              
                 RIV =           0.0000                   RIV =           0.0000     SSM_RIV-1                        
                 CHD =           0.0000                   CHD =           0.0000     SSM_CHD-1                        
                 CNC =           6.2587                   CNC =           0.8525     CNC_0                            

            TOTAL IN =          21.2773              TOTAL IN =           2.9000

          OUT:                                     OUT:
          ----                                     ----
     STORAGE-AQUEOUS =           6.5859       STORAGE-AQUEOUS =           0.8966     MST                              
                 RIV =           0.0000                   RIV =           0.0000     SSM_RIV-1                        
                 CHD =          14.1235                   CHD =           1.9260     SSM_CHD-1                        
                 CNC =           0.5679                   CNC =       7.7432E-02     CNC_0                            

           TOTAL OUT =          21.2773             TOTAL OUT =           2.9000

            IN - OUT =       2.1537E-09              IN - OUT =       1.6247E-09

 PERCENT DISCREPANCY =           0.00     PERCENT DISCREPANCY =           0.00




         TIME SUMMARY AT END OF TIME STEP   76 IN STRESS PERIOD    2
                    SECONDS     MINUTES      HOURS       DAYS        YEARS
                    -----------------------------------------------------------
   TIME STEP LENGTH  7200.0      120.00      2.0000     8.33333E-02 2.28154E-04
 STRESS PERIOD TIME 5.47200E+05  9120.0      152.00      6.3333     1.73397E-02
         TOTAL TIME 6.33600E+05  10560.      176.00      7.3333     2.00776E-02


end timestep


start timestep kper="2" kstp="77" mode="normal"

 UBDSV1 SAVING  STORAGE-AQUEOUS ON UNIT   1029 AT TIME STEP     77, STRESS PERIOD      2
 UBDSV1 SAVING     FLOW-JA-FACE ON UNIT   1029 AT TIME STEP     77, STRESS PERIOD      2
 UBDSV06 SAVING  SOURCE-SINK MIX IN MODEL GWT_RIVERBASE    PACKAGE GWT_RIVERBASE   CONNECTED TO MODEL GWT_RIVERBASE    PACKAGE SSM              ON UNIT   1029 AT TIME STEP     77, STRESS PERIOD      2
 UBDSV06 SAVING              CNC IN MODEL GWT_RIVERBASE    PACKAGE GWT_RIVERBASE   CONNECTED TO MODEL GWT_RIVERBASE    PACKAGE CNC_0            ON UNIT   1029 AT TIME STEP     77, STRESS PERIOD      2
1
  CONCENTRATION IN LAYER   1 AT END OF TIME STEP  77 IN STRESS PERIOD    2
  ---------------------------------------------------------------------------

                1               2               3               4               5               6               7               8               9              10
 ................................................................................................................................................................
   1      1.00000         1.00000         1.00000         1.00000         1.00000         1.00000         1.00000         1.00000         1.00000         1.00000    
   2     0.999984         1.00000        0.999984         1.00000         1.00000         1.00000         1.00000         1.00000         1.00000         1.00000    
   3      1.00000        0.999984         1.00000         1.00000         1.00000         1.00000         1.00000         1.00000         1.00000         1.00000    
   4      1.00000         1.00000        0.999983         1.00000         1.00000         1.00000         1.00000         1.00000         1.00000         1.00000    
   5      1.00000         1.00002         1.00000        0.999983        0.999982         1.00000         1.00000         1.00000         1.00000         1.00000    
   6      1.00003         10.0000         1.00000        0.999982         1.00000        0.999981         1.00000         1.00000         1.00000         1.00000    
   7      1.00002         10.0000         1.00000         1.00000         1.00000         1.00000        0.999981         1.00000         1.00000         1.00000    
   8      1.00000         1.00002         1.00000         1.00000         1.00000         1.00000         1.00000        0.999980        0.999979         1.00000    
   9      1.00000         1.00000         1.00000         1.00000         1.00000         1.00000         1.00000        0.999980         1.00000         1.00000    
  10      1.00000         1.00000         1.00000         1.00000         1.00000         1.00000         1.00000         1.00000         1.00000         1.00000    
  11      1.00000         1.00000         1.00000         1.00000         1.00000         1.00000         1.00000         1.00000         1.00000         1.00000    
  12      1.00000         1.00000         1.00000         1.00000         1.00000         1.00000         1.00000         1.00000         1.00000         1.00000    
  13      1.00000         1.00000         1.00000         1.00000         1.00000         1.00000         1.00000         1.00000         1.00000         1.00000    
  14      1.00000         1.00000         1.00000         1.00000         1.00000         1.00000         1.00000         1.00000         1.00000         1.00000    
  15      1.00000         1.00000         1.00000         1.00000         1.00000         1.00000         1.00000         1.00000         1.00000         1.00000    
1
  CONCENTRATION IN LAYER   2 AT END OF TIME STEP  77 IN STRESS PERIOD    2
  ---------------------------------------------------------------------------

                1               2               3               4               5               6               7               8               9              10
 ................................................................................................................................................................
   1      1.00000         1.00000         1.00000         1.00000         1.00000         1.00000         1.00000         1.00000         1.00000         1.00000    
   2      1.00000         1.00000         1.00000         1.00000         1.00000         1.00000         1.00000         1.00000         1.00000         1.00000    
   3      1.00000         1.00000         1.00000         1.00000         1.00000         1.00000         1.00000         1.00000         1.00000         1.00000    
   4      1.00000         1.00000         1.00000         1.00000         1.00000         1.00000         1.00000         1.00000         1.00000         1.00000    
   5      1.00000         1.00000         1.00000         1.00000         1.00000         1.00000         1.00000         1.00000         1.00000         1.00000    
   6      1.00000         1.00001         1.00000         1.00000         1.00000         1.00000         1.00000         1.00000         1.00000         1.00000    
   7      1.00000         1.00000         1.00000         1.00000         1.00000         1.00000         1.00000         1.00000         1.00000         1.00000    
   8      1.00000         1.00000         1.00000         1.00000         1.00000         1.00000         1.00000         1.00000         1.00000         1.00000    
   9      1.00000         1.00000         1.00000         1.00000         1.00000         1.00000         1.00000         1.00000         1.00000         1.00000    
  10      1.00000         1.00000         1.00000         1.00000         1.00000         1.00000         1.00000         1.00000         1.00000         1.00000    
  11      1.00000         1.00000         1.00000         1.00000         1.00000         1.00000         1.00000         1.00000         1.00000         1.00000    
  12      1.00000         1.00000         1.00000         1.00000         1.00000         1.00000         1.00000         1.00000         1.00000         1.00000    
  13      1.00000         1.00000         1.00000         1.00000         1.00000         1.00000         1.00000         1.00000         1.00000         1.00000    
  14      1.00000         1.00000         1.00000         1.00000         1.00000         1.00000         1.00000         1.00000         1.00000         1.00000    
  15      1.00000         1.00000         1.00000         1.00000         1.00000         1.00000         1.00000         1.00000         1.00000         1.00000    
1
  CONCENTRATION IN LAYER   3 AT END OF TIME STEP  77 IN STRESS PERIOD    2
  ---------------------------------------------------------------------------

                1               2               3               4               5               6               7               8               9              10
 ................................................................................................................................................................
   1      1.00000         1.00000         1.00000         1.00000         1.00000         1.00000         1.00000         1.00000         1.00000         1.00000    
   2      1.00000         1.00000         1.00000         1.00000         1.00000         1.00000         1.00000         1.00000         1.00000         1.00000    
   3      1.00000         1.00000         1.00000         1.00000         1.00000         1.00000         1.00000         1.00000         1.00000         1.00000    
   4      1.00000         1.00000         1.00000         1.00000         1.00000         1.00000         1.00000         1.00000         1.00000         1.00000    
   5      1.00000         1.00000         1.00000         1.00000         1.00000         1.00000         1.00000         1.00000         1.00000         1.00000    
   6      1.00000         1.00000         1.00000         1.00000         1.00000         1.00000         1.00000         1.00000         1.00000         1.00000    
   7      1.00000         1.00000         1.00000         1.00000         1.00000         1.00000         1.00000         1.00000         1.00000         1.00000    
   8      1.00000         1.00000         1.00000         1.00000         1.00000         1.00000         1.00000         1.00000         1.00000         1.00000    
   9      1.00000         1.00000         1.00000         1.00000         1.00000         1.00000         1.00000         1.00000         1.00000         1.00000    
  10      1.00000         1.00000         1.00000         1.00000         1.00000         1.00000         1.00000         1.00000         1.00000         1.00000    
  11      1.00000         1.00000         1.00000         1.00000         1.00000         1.00000         1.00000         1.00000         1.00000         1.00000    
  12      1.00000         1.00000         1.00000         1.00000         1.00000         1.00000         1.00000         1.00000         1.00000         1.00000    
  13      1.00000         1.00000         1.00000         1.00000         1.00000         1.00000         1.00000         1.00000         1.00000         1.00000    
  14      1.00000         1.00000         1.00000         1.00000         1.00000         1.00000         1.00000         1.00000         1.00000         1.00000    
  15      1.00000         1.00000         1.00000         1.00000         1.00000         1.00000         1.00000         1.00000         1.00000         1.00000    

 CONCENTRATION WILL BE SAVED ON UNIT 1030 AT END OF TIME STEP   77, STRESS PERIOD    2


  MASS BUDGET FOR ENTIRE MODEL AT END OF TIME STEP   77, STRESS PERIOD   2
  ---------------------------------------------------------------------------------------------------

     CUMULATIVE MASS      M       RATES FOR THIS TIME STEP      M/T          PACKAGE NAME    
     ------------------                 ------------------------                     ----------------

           IN:                                      IN:
           ---                                      ---
     STORAGE-AQUEOUS =          15.1892       STORAGE-AQUEOUS =           2.0475     MST                              
                 RIV =           0.0000                   RIV =           0.0000     SSM_RIV-1                        
                 CHD =           0.0000                   CHD =           0.0000     SSM_CHD-1                        
                 CNC =           6.3297                   CNC =           0.8525     CNC_0                            

            TOTAL IN =          21.5190              TOTAL IN =           2.9000

          OUT:                                     OUT:
          ----                                     ----
     STORAGE-AQUEOUS =           6.6606       STORAGE-AQUEOUS =           0.8966     MST                              
                 RIV =           0.0000                   RIV =           0.0000     SSM_RIV-1                        
                 CHD =          14.2840                   CHD =           1.9260     SSM_CHD-1                        
                 CNC =           0.5743                   CNC =       7.7432E-02     CNC_0                            

           TOTAL OUT =          21.5190             TOTAL OUT =           2.9000

            IN - OUT =       2.0237E-09              IN - OUT =      -1.5597E-09

 PERCENT DISCREPANCY =           0.00     PERCENT DISCREPANCY =          -0.00




         TIME SUMMARY AT END OF TIME STEP   77 IN STRESS PERIOD    2
                    SECONDS     MINUTES      HOURS       DAYS        YEARS
                    -----------------------------------------------------------
   TIME STEP LENGTH  7200.0      120.00      2.0000     8.33333E-02 2.28154E-04
 STRESS PERIOD TIME 5.54400E+05  9240.0      154.00      6.4167     1.75679E-02
         TOTAL TIME 6.40800E+05  10680.      178.00      7.4167     2.03057E-02


end timestep


start timestep kper="2" kstp="78" mode="normal"

 UBDSV1 SAVING  STORAGE-AQUEOUS ON UNIT   1029 AT TIME STEP     78, STRESS PERIOD      2
 UBDSV1 SAVING     FLOW-JA-FACE ON UNIT   1029 AT TIME STEP     78, STRESS PERIOD      2
 UBDSV06 SAVING  SOURCE-SINK MIX IN MODEL GWT_RIVERBASE    PACKAGE GWT_RIVERBASE   CONNECTED TO MODEL GWT_RIVERBASE    PACKAGE SSM              ON UNIT   1029 AT TIME STEP     78, STRESS PERIOD      2
 UBDSV06 SAVING              CNC IN MODEL GWT_RIVERBASE    PACKAGE GWT_RIVERBASE   CONNECTED TO MODEL GWT_RIVERBASE    PACKAGE CNC_0            ON UNIT   1029 AT TIME STEP     78, STRESS PERIOD      2
1
  CONCENTRATION IN LAYER   1 AT END OF TIME STEP  78 IN STRESS PERIOD    2
  ---------------------------------------------------------------------------

                1               2               3               4               5               6               7               8               9              10
 ................................................................................................................................................................
   1      1.00000         1.00000         1.00000         1.00000         1.00000         1.00000         1.00000         1.00000         1.00000         1.00000    
   2     0.999984         1.00000        0.999984         1.00000         1.00000         1.00000         1.00000         1.00000         1.00000         1.00000    
   3      1.00000        0.999983         1.00000         1.00000         1.00000         1.00000         1.00000         1.00000         1.00000         1.00000    
   4      1.00000         1.00000        0.999983         1.00000         1.00000         1.00000         1.00000         1.00000         1.00000         1.00000    
   5      1.00000         1.00002         1.00000        0.999983        0.999982         1.00000         1.00000         1.00000         1.00000         1.00000    
   6      1.00003         10.0000         1.00000        0.999982         1.00000        0.999981         1.00000         1.00000         1.00000         1.00000    
   7      1.00002         10.0000         1.00000         1.00000         1.00000         1.00000        0.999981         1.00000         1.00000         1.00000    
   8      1.00000         1.00002         1.00000         1.00000         1.00000         1.00000         1.00000        0.999980        0.999979         1.00000    
   9      1.00000         1.00000         1.00000         1.00000         1.00000         1.00000         1.00000        0.999980         1.00000         1.00000    
  10      1.00000         1.00000         1.00000         1.00000         1.00000         1.00000         1.00000         1.00000         1.00000         1.00000    
  11      1.00000         1.00000         1.00000         1.00000         1.00000         1.00000         1.00000         1.00000         1.00000         1.00000    
  12      1.00000         1.00000         1.00000         1.00000         1.00000         1.00000         1.00000         1.00000         1.00000         1.00000    
  13      1.00000         1.00000         1.00000         1.00000         1.00000         1.00000         1.00000         1.00000         1.00000         1.00000    
  14      1.00000         1.00000         1.00000         1.00000         1.00000         1.00000         1.00000         1.00000         1.00000         1.00000    
  15      1.00000         1.00000         1.00000         1.00000         1.00000         1.00000         1.00000         1.00000         1.00000         1.00000    
1
  CONCENTRATION IN LAYER   2 AT END OF TIME STEP  78 IN STRESS PERIOD    2
  ---------------------------------------------------------------------------

                1               2               3               4               5               6               7               8               9              10
 ................................................................................................................................................................
   1      1.00000         1.00000         1.00000         1.00000         1.00000         1.00000         1.00000         1.00000         1.00000         1.00000    
   2      1.00000         1.00000         1.00000         1.00000         1.00000         1.00000         1.00000         1.00000         1.00000         1.00000    
   3      1.00000         1.00000         1.00000         1.00000         1.00000         1.00000         1.00000         1.00000         1.00000         1.00000    
   4      1.00000         1.00000         1.00000         1.00000         1.00000         1.00000         1.00000         1.00000         1.00000         1.00000    
   5      1.00000         1.00000         1.00000         1.00000         1.00000         1.00000         1.00000         1.00000         1.00000         1.00000    
   6      1.00000         1.00001         1.00000         1.00000         1.00000         1.00000         1.00000         1.00000         1.00000         1.00000    
   7      1.00000         1.00000         1.00000         1.00000         1.00000         1.00000         1.00000         1.00000         1.00000         1.00000    
   8      1.00000         1.00000         1.00000         1.00000         1.00000         1.00000         1.00000         1.00000         1.00000         1.00000    
   9      1.00000         1.00000         1.00000         1.00000         1.00000         1.00000         1.00000         1.00000         1.00000         1.00000    
  10      1.00000         1.00000         1.00000         1.00000         1.00000         1.00000         1.00000         1.00000         1.00000         1.00000    
  11      1.00000         1.00000         1.00000         1.00000         1.00000         1.00000         1.00000         1.00000         1.00000         1.00000    
  12      1.00000         1.00000         1.00000         1.00000         1.00000         1.00000         1.00000         1.00000         1.00000         1.00000    
  13      1.00000         1.00000         1.00000         1.00000         1.00000         1.00000         1.00000         1.00000         1.00000         1.00000    
  14      1.00000         1.00000         1.00000         1.00000         1.00000         1.00000         1.00000         1.00000         1.00000         1.00000    
  15      1.00000         1.00000         1.00000         1.00000         1.00000         1.00000         1.00000         1.00000         1.00000         1.00000    
1
  CONCENTRATION IN LAYER   3 AT END OF TIME STEP  78 IN STRESS PERIOD    2
  ---------------------------------------------------------------------------

                1               2               3               4               5               6               7               8               9              10
 ................................................................................................................................................................
   1      1.00000         1.00000         1.00000         1.00000         1.00000         1.00000         1.00000         1.00000         1.00000         1.00000    
   2      1.00000         1.00000         1.00000         1.00000         1.00000         1.00000         1.00000         1.00000         1.00000         1.00000    
   3      1.00000         1.00000         1.00000         1.00000         1.00000         1.00000         1.00000         1.00000         1.00000         1.00000    
   4      1.00000         1.00000         1.00000         1.00000         1.00000         1.00000         1.00000         1.00000         1.00000         1.00000    
   5      1.00000         1.00000         1.00000         1.00000         1.00000         1.00000         1.00000         1.00000         1.00000         1.00000    
   6      1.00000         1.00000         1.00000         1.00000         1.00000         1.00000         1.00000         1.00000         1.00000         1.00000    
   7      1.00000         1.00000         1.00000         1.00000         1.00000         1.00000         1.00000         1.00000         1.00000         1.00000    
   8      1.00000         1.00000         1.00000         1.00000         1.00000         1.00000         1.00000         1.00000         1.00000         1.00000    
   9      1.00000         1.00000         1.00000         1.00000         1.00000         1.00000         1.00000         1.00000         1.00000         1.00000    
  10      1.00000         1.00000         1.00000         1.00000         1.00000         1.00000         1.00000         1.00000         1.00000         1.00000    
  11      1.00000         1.00000         1.00000         1.00000         1.00000         1.00000         1.00000         1.00000         1.00000         1.00000    
  12      1.00000         1.00000         1.00000         1.00000         1.00000         1.00000         1.00000         1.00000         1.00000         1.00000    
  13      1.00000         1.00000         1.00000         1.00000         1.00000         1.00000         1.00000         1.00000         1.00000         1.00000    
  14      1.00000         1.00000         1.00000         1.00000         1.00000         1.00000         1.00000         1.00000         1.00000         1.00000    
  15      1.00000         1.00000         1.00000         1.00000         1.00000         1.00000         1.00000         1.00000         1.00000         1.00000    

 CONCENTRATION WILL BE SAVED ON UNIT 1030 AT END OF TIME STEP   78, STRESS PERIOD    2


  MASS BUDGET FOR ENTIRE MODEL AT END OF TIME STEP   78, STRESS PERIOD   2
  ---------------------------------------------------------------------------------------------------

     CUMULATIVE MASS      M       RATES FOR THIS TIME STEP      M/T          PACKAGE NAME    
     ------------------                 ------------------------                     ----------------

           IN:                                      IN:
           ---                                      ---
     STORAGE-AQUEOUS =          15.3598       STORAGE-AQUEOUS =           2.0475     MST                              
                 RIV =           0.0000                   RIV =           0.0000     SSM_RIV-1                        
                 CHD =           0.0000                   CHD =           0.0000     SSM_CHD-1                        
                 CNC =           6.4008                   CNC =           0.8525     CNC_0                            

            TOTAL IN =          21.7606              TOTAL IN =           2.9000

          OUT:                                     OUT:
          ----                                     ----
     STORAGE-AQUEOUS =           6.7353       STORAGE-AQUEOUS =           0.8966     MST                              
                 RIV =           0.0000                   RIV =           0.0000     SSM_RIV-1                        
                 CHD =          14.4445                   CHD =           1.9260     SSM_CHD-1                        
                 CNC =           0.5808                   CNC =       7.7432E-02     CNC_0                            

           TOTAL OUT =          21.7606             TOTAL OUT =           2.9000

            IN - OUT =       2.0307E-09              IN - OUT =       8.4378E-11

 PERCENT DISCREPANCY =           0.00     PERCENT DISCREPANCY =           0.00




         TIME SUMMARY AT END OF TIME STEP   78 IN STRESS PERIOD    2
                    SECONDS     MINUTES      HOURS       DAYS        YEARS
                    -----------------------------------------------------------
   TIME STEP LENGTH  7200.0      120.00      2.0000     8.33333E-02 2.28154E-04
 STRESS PERIOD TIME 5.61600E+05  9360.0      156.00      6.5000     1.77960E-02
         TOTAL TIME 6.48000E+05  10800.      180.00      7.5000     2.05339E-02


end timestep


start timestep kper="2" kstp="79" mode="normal"

 UBDSV1 SAVING  STORAGE-AQUEOUS ON UNIT   1029 AT TIME STEP     79, STRESS PERIOD      2
 UBDSV1 SAVING     FLOW-JA-FACE ON UNIT   1029 AT TIME STEP     79, STRESS PERIOD      2
 UBDSV06 SAVING  SOURCE-SINK MIX IN MODEL GWT_RIVERBASE    PACKAGE GWT_RIVERBASE   CONNECTED TO MODEL GWT_RIVERBASE    PACKAGE SSM              ON UNIT   1029 AT TIME STEP     79, STRESS PERIOD      2
 UBDSV06 SAVING              CNC IN MODEL GWT_RIVERBASE    PACKAGE GWT_RIVERBASE   CONNECTED TO MODEL GWT_RIVERBASE    PACKAGE CNC_0            ON UNIT   1029 AT TIME STEP     79, STRESS PERIOD      2
1
  CONCENTRATION IN LAYER   1 AT END OF TIME STEP  79 IN STRESS PERIOD    2
  ---------------------------------------------------------------------------

                1               2               3               4               5               6               7               8               9              10
 ................................................................................................................................................................
   1      1.00000         1.00000         1.00000         1.00000         1.00000         1.00000         1.00000         1.00000         1.00000         1.00000    
   2     0.999984         1.00000        0.999984         1.00000         1.00000         1.00000         1.00000         1.00000         1.00000         1.00000    
   3      1.00000        0.999983         1.00000         1.00000         1.00000         1.00000         1.00000         1.00000         1.00000         1.00000    
   4      1.00000         1.00000        0.999983         1.00000         1.00000         1.00000         1.00000         1.00000         1.00000         1.00000    
   5      1.00000         1.00002         1.00000        0.999982        0.999981         1.00000         1.00000         1.00000         1.00000         1.00000    
   6      1.00003         10.0000         1.00000        0.999982         1.00000        0.999981         1.00000         1.00000         1.00000         1.00000    
   7      1.00002         10.0000         1.00000         1.00000         1.00000         1.00000        0.999980         1.00000         1.00000         1.00000    
   8      1.00000         1.00002         1.00000         1.00000         1.00000         1.00000         1.00000        0.999980        0.999979         1.00000    
   9      1.00000         1.00000         1.00000         1.00000         1.00000         1.00000         1.00000        0.999979         1.00000         1.00000    
  10      1.00000         1.00000         1.00000         1.00000         1.00000         1.00000         1.00000         1.00000         1.00000         1.00000    
  11      1.00000         1.00000         1.00000         1.00000         1.00000         1.00000         1.00000         1.00000         1.00000         1.00000    
  12      1.00000         1.00000         1.00000         1.00000         1.00000         1.00000         1.00000         1.00000         1.00000         1.00000    
  13      1.00000         1.00000         1.00000         1.00000         1.00000         1.00000         1.00000         1.00000         1.00000         1.00000    
  14      1.00000         1.00000         1.00000         1.00000         1.00000         1.00000         1.00000         1.00000         1.00000         1.00000    
  15      1.00000         1.00000         1.00000         1.00000         1.00000         1.00000         1.00000         1.00000         1.00000         1.00000    
1
  CONCENTRATION IN LAYER   2 AT END OF TIME STEP  79 IN STRESS PERIOD    2
  ---------------------------------------------------------------------------

                1               2               3               4               5               6               7               8               9              10
 ................................................................................................................................................................
   1      1.00000         1.00000         1.00000         1.00000         1.00000         1.00000         1.00000         1.00000         1.00000         1.00000    
   2      1.00000         1.00000         1.00000         1.00000         1.00000         1.00000         1.00000         1.00000         1.00000         1.00000    
   3      1.00000         1.00000         1.00000         1.00000         1.00000         1.00000         1.00000         1.00000         1.00000         1.00000    
   4      1.00000         1.00000         1.00000         1.00000         1.00000         1.00000         1.00000         1.00000         1.00000         1.00000    
   5      1.00000         1.00000         1.00000         1.00000         1.00000         1.00000         1.00000         1.00000         1.00000         1.00000    
   6      1.00000         1.00001         1.00000         1.00000         1.00000         1.00000         1.00000         1.00000         1.00000         1.00000    
   7      1.00000         1.00000         1.00000         1.00000         1.00000         1.00000         1.00000         1.00000         1.00000         1.00000    
   8      1.00000         1.00000         1.00000         1.00000         1.00000         1.00000         1.00000         1.00000         1.00000         1.00000    
   9      1.00000         1.00000         1.00000         1.00000         1.00000         1.00000         1.00000         1.00000         1.00000         1.00000    
  10      1.00000         1.00000         1.00000         1.00000         1.00000         1.00000         1.00000         1.00000         1.00000         1.00000    
  11      1.00000         1.00000         1.00000         1.00000         1.00000         1.00000         1.00000         1.00000         1.00000         1.00000    
  12      1.00000         1.00000         1.00000         1.00000         1.00000         1.00000         1.00000         1.00000         1.00000         1.00000    
  13      1.00000         1.00000         1.00000         1.00000         1.00000         1.00000         1.00000         1.00000         1.00000         1.00000    
  14      1.00000         1.00000         1.00000         1.00000         1.00000         1.00000         1.00000         1.00000         1.00000         1.00000    
  15      1.00000         1.00000         1.00000         1.00000         1.00000         1.00000         1.00000         1.00000         1.00000         1.00000    
1
  CONCENTRATION IN LAYER   3 AT END OF TIME STEP  79 IN STRESS PERIOD    2
  ---------------------------------------------------------------------------

                1               2               3               4               5               6               7               8               9              10
 ................................................................................................................................................................
   1      1.00000         1.00000         1.00000         1.00000         1.00000         1.00000         1.00000         1.00000         1.00000         1.00000    
   2      1.00000         1.00000         1.00000         1.00000         1.00000         1.00000         1.00000         1.00000         1.00000         1.00000    
   3      1.00000         1.00000         1.00000         1.00000         1.00000         1.00000         1.00000         1.00000         1.00000         1.00000    
   4      1.00000         1.00000         1.00000         1.00000         1.00000         1.00000         1.00000         1.00000         1.00000         1.00000    
   5      1.00000         1.00000         1.00000         1.00000         1.00000         1.00000         1.00000         1.00000         1.00000         1.00000    
   6      1.00000         1.00000         1.00000         1.00000         1.00000         1.00000         1.00000         1.00000         1.00000         1.00000    
   7      1.00000         1.00000         1.00000         1.00000         1.00000         1.00000         1.00000         1.00000         1.00000         1.00000    
   8      1.00000         1.00000         1.00000         1.00000         1.00000         1.00000         1.00000         1.00000         1.00000         1.00000    
   9      1.00000         1.00000         1.00000         1.00000         1.00000         1.00000         1.00000         1.00000         1.00000         1.00000    
  10      1.00000         1.00000         1.00000         1.00000         1.00000         1.00000         1.00000         1.00000         1.00000         1.00000    
  11      1.00000         1.00000         1.00000         1.00000         1.00000         1.00000         1.00000         1.00000         1.00000         1.00000    
  12      1.00000         1.00000         1.00000         1.00000         1.00000         1.00000         1.00000         1.00000         1.00000         1.00000    
  13      1.00000         1.00000         1.00000         1.00000         1.00000         1.00000         1.00000         1.00000         1.00000         1.00000    
  14      1.00000         1.00000         1.00000         1.00000         1.00000         1.00000         1.00000         1.00000         1.00000         1.00000    
  15      1.00000         1.00000         1.00000         1.00000         1.00000         1.00000         1.00000         1.00000         1.00000         1.00000    

 CONCENTRATION WILL BE SAVED ON UNIT 1030 AT END OF TIME STEP   79, STRESS PERIOD    2


  MASS BUDGET FOR ENTIRE MODEL AT END OF TIME STEP   79, STRESS PERIOD   2
  ---------------------------------------------------------------------------------------------------

     CUMULATIVE MASS      M       RATES FOR THIS TIME STEP      M/T          PACKAGE NAME    
     ------------------                 ------------------------                     ----------------

           IN:                                      IN:
           ---                                      ---
     STORAGE-AQUEOUS =          15.5305       STORAGE-AQUEOUS =           2.0475     MST                              
                 RIV =           0.0000                   RIV =           0.0000     SSM_RIV-1                        
                 CHD =           0.0000                   CHD =           0.0000     SSM_CHD-1                        
                 CNC =           6.4718                   CNC =           0.8525     CNC_0                            

            TOTAL IN =          22.0023              TOTAL IN =           2.9000

          OUT:                                     OUT:
          ----                                     ----
     STORAGE-AQUEOUS =           6.8101       STORAGE-AQUEOUS =           0.8966     MST                              
                 RIV =           0.0000                   RIV =           0.0000     SSM_RIV-1                        
                 CHD =          14.6050                   CHD =           1.9260     SSM_CHD-1                        
                 CNC =           0.5872                   CNC =       7.7431E-02     CNC_0                            

           TOTAL OUT =          22.0023             TOTAL OUT =           2.9000

            IN - OUT =       2.1263E-09              IN - OUT =       1.1470E-09

 PERCENT DISCREPANCY =           0.00     PERCENT DISCREPANCY =           0.00




         TIME SUMMARY AT END OF TIME STEP   79 IN STRESS PERIOD    2
                    SECONDS     MINUTES      HOURS       DAYS        YEARS
                    -----------------------------------------------------------
   TIME STEP LENGTH  7200.0      120.00      2.0000     8.33333E-02 2.28154E-04
 STRESS PERIOD TIME 5.68800E+05  9480.0      158.00      6.5833     1.80242E-02
         TOTAL TIME 6.55200E+05  10920.      182.00      7.5833     2.07620E-02


end timestep


start timestep kper="2" kstp="80" mode="normal"

 UBDSV1 SAVING  STORAGE-AQUEOUS ON UNIT   1029 AT TIME STEP     80, STRESS PERIOD      2
 UBDSV1 SAVING     FLOW-JA-FACE ON UNIT   1029 AT TIME STEP     80, STRESS PERIOD      2
 UBDSV06 SAVING  SOURCE-SINK MIX IN MODEL GWT_RIVERBASE    PACKAGE GWT_RIVERBASE   CONNECTED TO MODEL GWT_RIVERBASE    PACKAGE SSM              ON UNIT   1029 AT TIME STEP     80, STRESS PERIOD      2
 UBDSV06 SAVING              CNC IN MODEL GWT_RIVERBASE    PACKAGE GWT_RIVERBASE   CONNECTED TO MODEL GWT_RIVERBASE    PACKAGE CNC_0            ON UNIT   1029 AT TIME STEP     80, STRESS PERIOD      2
1
  CONCENTRATION IN LAYER   1 AT END OF TIME STEP  80 IN STRESS PERIOD    2
  ---------------------------------------------------------------------------

                1               2               3               4               5               6               7               8               9              10
 ................................................................................................................................................................
   1      1.00000         1.00000         1.00000         1.00000         1.00000         1.00000         1.00000         1.00000         1.00000         1.00000    
   2     0.999984         1.00000        0.999984         1.00000         1.00000         1.00000         1.00000         1.00000         1.00000         1.00000    
   3      1.00000        0.999983         1.00000         1.00000         1.00000         1.00000         1.00000         1.00000         1.00000         1.00000    
   4      1.00000         1.00000        0.999983         1.00000         1.00000         1.00000         1.00000         1.00000         1.00000         1.00000    
   5      1.00000         1.00002         1.00000        0.999982        0.999981         1.00000         1.00000         1.00000         1.00000         1.00000    
   6      1.00003         10.0000         1.00000        0.999982         1.00000        0.999981         1.00000         1.00000         1.00000         1.00000    
   7      1.00002         10.0000         1.00000         1.00000         1.00000         1.00000        0.999980         1.00000         1.00000         1.00000    
   8      1.00000         1.00002         1.00000         1.00000         1.00000         1.00000         1.00000        0.999980        0.999979         1.00000    
   9      1.00000         1.00000         1.00000         1.00000         1.00000         1.00000         1.00000        0.999979         1.00000         1.00000    
  10      1.00000         1.00000         1.00000         1.00000         1.00000         1.00000         1.00000         1.00000         1.00000         1.00000    
  11      1.00000         1.00000         1.00000         1.00000         1.00000         1.00000         1.00000         1.00000         1.00000         1.00000    
  12      1.00000         1.00000         1.00000         1.00000         1.00000         1.00000         1.00000         1.00000         1.00000         1.00000    
  13      1.00000         1.00000         1.00000         1.00000         1.00000         1.00000         1.00000         1.00000         1.00000         1.00000    
  14      1.00000         1.00000         1.00000         1.00000         1.00000         1.00000         1.00000         1.00000         1.00000         1.00000    
  15      1.00000         1.00000         1.00000         1.00000         1.00000         1.00000         1.00000         1.00000         1.00000         1.00000    
1
  CONCENTRATION IN LAYER   2 AT END OF TIME STEP  80 IN STRESS PERIOD    2
  ---------------------------------------------------------------------------

                1               2               3               4               5               6               7               8               9              10
 ................................................................................................................................................................
   1      1.00000         1.00000         1.00000         1.00000         1.00000         1.00000         1.00000         1.00000         1.00000         1.00000    
   2      1.00000         1.00000         1.00000         1.00000         1.00000         1.00000         1.00000         1.00000         1.00000         1.00000    
   3      1.00000         1.00000         1.00000         1.00000         1.00000         1.00000         1.00000         1.00000         1.00000         1.00000    
   4      1.00000         1.00000         1.00000         1.00000         1.00000         1.00000         1.00000         1.00000         1.00000         1.00000    
   5      1.00000         1.00000         1.00000         1.00000         1.00000         1.00000         1.00000         1.00000         1.00000         1.00000    
   6      1.00000         1.00001         1.00000         1.00000         1.00000         1.00000         1.00000         1.00000         1.00000         1.00000    
   7      1.00000         1.00000         1.00000         1.00000         1.00000         1.00000         1.00000         1.00000         1.00000         1.00000    
   8      1.00000         1.00000         1.00000         1.00000         1.00000         1.00000         1.00000         1.00000         1.00000         1.00000    
   9      1.00000         1.00000         1.00000         1.00000         1.00000         1.00000         1.00000         1.00000         1.00000         1.00000    
  10      1.00000         1.00000         1.00000         1.00000         1.00000         1.00000         1.00000         1.00000         1.00000         1.00000    
  11      1.00000         1.00000         1.00000         1.00000         1.00000         1.00000         1.00000         1.00000         1.00000         1.00000    
  12      1.00000         1.00000         1.00000         1.00000         1.00000         1.00000         1.00000         1.00000         1.00000         1.00000    
  13      1.00000         1.00000         1.00000         1.00000         1.00000         1.00000         1.00000         1.00000         1.00000         1.00000    
  14      1.00000         1.00000         1.00000         1.00000         1.00000         1.00000         1.00000         1.00000         1.00000         1.00000    
  15      1.00000         1.00000         1.00000         1.00000         1.00000         1.00000         1.00000         1.00000         1.00000         1.00000    
1
  CONCENTRATION IN LAYER   3 AT END OF TIME STEP  80 IN STRESS PERIOD    2
  ---------------------------------------------------------------------------

                1               2               3               4               5               6               7               8               9              10
 ................................................................................................................................................................
   1      1.00000         1.00000         1.00000         1.00000         1.00000         1.00000         1.00000         1.00000         1.00000         1.00000    
   2      1.00000         1.00000         1.00000         1.00000         1.00000         1.00000         1.00000         1.00000         1.00000         1.00000    
   3      1.00000         1.00000         1.00000         1.00000         1.00000         1.00000         1.00000         1.00000         1.00000         1.00000    
   4      1.00000         1.00000         1.00000         1.00000         1.00000         1.00000         1.00000         1.00000         1.00000         1.00000    
   5      1.00000         1.00000         1.00000         1.00000         1.00000         1.00000         1.00000         1.00000         1.00000         1.00000    
   6      1.00000         1.00000         1.00000         1.00000         1.00000         1.00000         1.00000         1.00000         1.00000         1.00000    
   7      1.00000         1.00000         1.00000         1.00000         1.00000         1.00000         1.00000         1.00000         1.00000         1.00000    
   8      1.00000         1.00000         1.00000         1.00000         1.00000         1.00000         1.00000         1.00000         1.00000         1.00000    
   9      1.00000         1.00000         1.00000         1.00000         1.00000         1.00000         1.00000         1.00000         1.00000         1.00000    
  10      1.00000         1.00000         1.00000         1.00000         1.00000         1.00000         1.00000         1.00000         1.00000         1.00000    
  11      1.00000         1.00000         1.00000         1.00000         1.00000         1.00000         1.00000         1.00000         1.00000         1.00000    
  12      1.00000         1.00000         1.00000         1.00000         1.00000         1.00000         1.00000         1.00000         1.00000         1.00000    
  13      1.00000         1.00000         1.00000         1.00000         1.00000         1.00000         1.00000         1.00000         1.00000         1.00000    
  14      1.00000         1.00000         1.00000         1.00000         1.00000         1.00000         1.00000         1.00000         1.00000         1.00000    
  15      1.00000         1.00000         1.00000         1.00000         1.00000         1.00000         1.00000         1.00000         1.00000         1.00000    

 CONCENTRATION WILL BE SAVED ON UNIT 1030 AT END OF TIME STEP   80, STRESS PERIOD    2


  MASS BUDGET FOR ENTIRE MODEL AT END OF TIME STEP   80, STRESS PERIOD   2
  ---------------------------------------------------------------------------------------------------

     CUMULATIVE MASS      M       RATES FOR THIS TIME STEP      M/T          PACKAGE NAME    
     ------------------                 ------------------------                     ----------------

           IN:                                      IN:
           ---                                      ---
     STORAGE-AQUEOUS =          15.7011       STORAGE-AQUEOUS =           2.0475     MST                              
                 RIV =           0.0000                   RIV =           0.0000     SSM_RIV-1                        
                 CHD =           0.0000                   CHD =           0.0000     SSM_CHD-1                        
                 CNC =           6.5429                   CNC =           0.8525     CNC_0                            

            TOTAL IN =          22.2440              TOTAL IN =           2.9000

          OUT:                                     OUT:
          ----                                     ----
     STORAGE-AQUEOUS =           6.8848       STORAGE-AQUEOUS =           0.8966     MST                              
                 RIV =           0.0000                   RIV =           0.0000     SSM_RIV-1                        
                 CHD =          14.7655                   CHD =           1.9260     SSM_CHD-1                        
                 CNC =           0.5937                   CNC =       7.7431E-02     CNC_0                            

           TOTAL OUT =          22.2440             TOTAL OUT =           2.9000

            IN - OUT =       2.2597E-09              IN - OUT =       1.6012E-09

 PERCENT DISCREPANCY =           0.00     PERCENT DISCREPANCY =           0.00




         TIME SUMMARY AT END OF TIME STEP   80 IN STRESS PERIOD    2
                    SECONDS     MINUTES      HOURS       DAYS        YEARS
                    -----------------------------------------------------------
   TIME STEP LENGTH  7200.0      120.00      2.0000     8.33333E-02 2.28154E-04
 STRESS PERIOD TIME 5.76000E+05  9600.0      160.00      6.6667     1.82523E-02
         TOTAL TIME 6.62400E+05  11040.      184.00      7.6667     2.09902E-02


end timestep


start timestep kper="2" kstp="81" mode="normal"

 UBDSV1 SAVING  STORAGE-AQUEOUS ON UNIT   1029 AT TIME STEP     81, STRESS PERIOD      2
 UBDSV1 SAVING     FLOW-JA-FACE ON UNIT   1029 AT TIME STEP     81, STRESS PERIOD      2
 UBDSV06 SAVING  SOURCE-SINK MIX IN MODEL GWT_RIVERBASE    PACKAGE GWT_RIVERBASE   CONNECTED TO MODEL GWT_RIVERBASE    PACKAGE SSM              ON UNIT   1029 AT TIME STEP     81, STRESS PERIOD      2
 UBDSV06 SAVING              CNC IN MODEL GWT_RIVERBASE    PACKAGE GWT_RIVERBASE   CONNECTED TO MODEL GWT_RIVERBASE    PACKAGE CNC_0            ON UNIT   1029 AT TIME STEP     81, STRESS PERIOD      2
1
  CONCENTRATION IN LAYER   1 AT END OF TIME STEP  81 IN STRESS PERIOD    2
  ---------------------------------------------------------------------------

                1               2               3               4               5               6               7               8               9              10
 ................................................................................................................................................................
   1      1.00000         1.00000         1.00000         1.00000         1.00000         1.00000         1.00000         1.00000         1.00000         1.00000    
   2     0.999984         1.00000        0.999983         1.00000         1.00000         1.00000         1.00000         1.00000         1.00000         1.00000    
   3      1.00000        0.999983         1.00000         1.00000         1.00000         1.00000         1.00000         1.00000         1.00000         1.00000    
   4      1.00000         1.00000        0.999982         1.00000         1.00000         1.00000         1.00000         1.00000         1.00000         1.00000    
   5      1.00000         1.00002         1.00000        0.999982        0.999981         1.00000         1.00000         1.00000         1.00000         1.00000    
   6      1.00003         10.0000         1.00000        0.999982         1.00000        0.999981         1.00000         1.00000         1.00000         1.00000    
   7      1.00002         10.0000         1.00000         1.00000         1.00000         1.00000        0.999980         1.00000         1.00000         1.00000    
   8      1.00000         1.00002         1.00000         1.00000         1.00000         1.00000         1.00000        0.999980        0.999979         1.00000    
   9      1.00000         1.00000         1.00000         1.00000         1.00000         1.00000         1.00000        0.999979         1.00000         1.00000    
  10      1.00000         1.00000         1.00000         1.00000         1.00000         1.00000         1.00000         1.00000         1.00000         1.00000    
  11      1.00000         1.00000         1.00000         1.00000         1.00000         1.00000         1.00000         1.00000         1.00000         1.00000    
  12      1.00000         1.00000         1.00000         1.00000         1.00000         1.00000         1.00000         1.00000         1.00000         1.00000    
  13      1.00000         1.00000         1.00000         1.00000         1.00000         1.00000         1.00000         1.00000         1.00000         1.00000    
  14      1.00000         1.00000         1.00000         1.00000         1.00000         1.00000         1.00000         1.00000         1.00000         1.00000    
  15      1.00000         1.00000         1.00000         1.00000         1.00000         1.00000         1.00000         1.00000         1.00000         1.00000    
1
  CONCENTRATION IN LAYER   2 AT END OF TIME STEP  81 IN STRESS PERIOD    2
  ---------------------------------------------------------------------------

                1               2               3               4               5               6               7               8               9              10
 ................................................................................................................................................................
   1      1.00000         1.00000         1.00000         1.00000         1.00000         1.00000         1.00000         1.00000         1.00000         1.00000    
   2      1.00000         1.00000         1.00000         1.00000         1.00000         1.00000         1.00000         1.00000         1.00000         1.00000    
   3      1.00000         1.00000         1.00000         1.00000         1.00000         1.00000         1.00000         1.00000         1.00000         1.00000    
   4      1.00000         1.00000         1.00000         1.00000         1.00000         1.00000         1.00000         1.00000         1.00000         1.00000    
   5      1.00000         1.00000         1.00000         1.00000         1.00000         1.00000         1.00000         1.00000         1.00000         1.00000    
   6      1.00000         1.00001         1.00000         1.00000         1.00000         1.00000         1.00000         1.00000         1.00000         1.00000    
   7      1.00000         1.00000         1.00000         1.00000         1.00000         1.00000         1.00000         1.00000         1.00000         1.00000    
   8      1.00000         1.00000         1.00000         1.00000         1.00000         1.00000         1.00000         1.00000         1.00000         1.00000    
   9      1.00000         1.00000         1.00000         1.00000         1.00000         1.00000         1.00000         1.00000         1.00000         1.00000    
  10      1.00000         1.00000         1.00000         1.00000         1.00000         1.00000         1.00000         1.00000         1.00000         1.00000    
  11      1.00000         1.00000         1.00000         1.00000         1.00000         1.00000         1.00000         1.00000         1.00000         1.00000    
  12      1.00000         1.00000         1.00000         1.00000         1.00000         1.00000         1.00000         1.00000         1.00000         1.00000    
  13      1.00000         1.00000         1.00000         1.00000         1.00000         1.00000         1.00000         1.00000         1.00000         1.00000    
  14      1.00000         1.00000         1.00000         1.00000         1.00000         1.00000         1.00000         1.00000         1.00000         1.00000    
  15      1.00000         1.00000         1.00000         1.00000         1.00000         1.00000         1.00000         1.00000         1.00000         1.00000    
1
  CONCENTRATION IN LAYER   3 AT END OF TIME STEP  81 IN STRESS PERIOD    2
  ---------------------------------------------------------------------------

                1               2               3               4               5               6               7               8               9              10
 ................................................................................................................................................................
   1      1.00000         1.00000         1.00000         1.00000         1.00000         1.00000         1.00000         1.00000         1.00000         1.00000    
   2      1.00000         1.00000         1.00000         1.00000         1.00000         1.00000         1.00000         1.00000         1.00000         1.00000    
   3      1.00000         1.00000         1.00000         1.00000         1.00000         1.00000         1.00000         1.00000         1.00000         1.00000    
   4      1.00000         1.00000         1.00000         1.00000         1.00000         1.00000         1.00000         1.00000         1.00000         1.00000    
   5      1.00000         1.00000         1.00000         1.00000         1.00000         1.00000         1.00000         1.00000         1.00000         1.00000    
   6      1.00000         1.00000         1.00000         1.00000         1.00000         1.00000         1.00000         1.00000         1.00000         1.00000    
   7      1.00000         1.00000         1.00000         1.00000         1.00000         1.00000         1.00000         1.00000         1.00000         1.00000    
   8      1.00000         1.00000         1.00000         1.00000         1.00000         1.00000         1.00000         1.00000         1.00000         1.00000    
   9      1.00000         1.00000         1.00000         1.00000         1.00000         1.00000         1.00000         1.00000         1.00000         1.00000    
  10      1.00000         1.00000         1.00000         1.00000         1.00000         1.00000         1.00000         1.00000         1.00000         1.00000    
  11      1.00000         1.00000         1.00000         1.00000         1.00000         1.00000         1.00000         1.00000         1.00000         1.00000    
  12      1.00000         1.00000         1.00000         1.00000         1.00000         1.00000         1.00000         1.00000         1.00000         1.00000    
  13      1.00000         1.00000         1.00000         1.00000         1.00000         1.00000         1.00000         1.00000         1.00000         1.00000    
  14      1.00000         1.00000         1.00000         1.00000         1.00000         1.00000         1.00000         1.00000         1.00000         1.00000    
  15      1.00000         1.00000         1.00000         1.00000         1.00000         1.00000         1.00000         1.00000         1.00000         1.00000    

 CONCENTRATION WILL BE SAVED ON UNIT 1030 AT END OF TIME STEP   81, STRESS PERIOD    2


  MASS BUDGET FOR ENTIRE MODEL AT END OF TIME STEP   81, STRESS PERIOD   2
  ---------------------------------------------------------------------------------------------------

     CUMULATIVE MASS      M       RATES FOR THIS TIME STEP      M/T          PACKAGE NAME    
     ------------------                 ------------------------                     ----------------

           IN:                                      IN:
           ---                                      ---
     STORAGE-AQUEOUS =          15.8717       STORAGE-AQUEOUS =           2.0475     MST                              
                 RIV =           0.0000                   RIV =           0.0000     SSM_RIV-1                        
                 CHD =           0.0000                   CHD =           0.0000     SSM_CHD-1                        
                 CNC =           6.6139                   CNC =           0.8526     CNC_0                            

            TOTAL IN =          22.4856              TOTAL IN =           2.9000

          OUT:                                     OUT:
          ----                                     ----
     STORAGE-AQUEOUS =           6.9595       STORAGE-AQUEOUS =           0.8966     MST                              
                 RIV =           0.0000                   RIV =           0.0000     SSM_RIV-1                        
                 CHD =          14.9260                   CHD =           1.9260     SSM_CHD-1                        
                 CNC =           0.6001                   CNC =       7.7431E-02     CNC_0                            

           TOTAL OUT =          22.4856             TOTAL OUT =           2.9000

            IN - OUT =       2.3977E-09              IN - OUT =       1.6555E-09

 PERCENT DISCREPANCY =           0.00     PERCENT DISCREPANCY =           0.00




         TIME SUMMARY AT END OF TIME STEP   81 IN STRESS PERIOD    2
                    SECONDS     MINUTES      HOURS       DAYS        YEARS
                    -----------------------------------------------------------
   TIME STEP LENGTH  7200.0      120.00      2.0000     8.33333E-02 2.28154E-04
 STRESS PERIOD TIME 5.83200E+05  9720.0      162.00      6.7500     1.84805E-02
         TOTAL TIME 6.69600E+05  11160.      186.00      7.7500     2.12183E-02


end timestep


start timestep kper="2" kstp="82" mode="normal"

 UBDSV1 SAVING  STORAGE-AQUEOUS ON UNIT   1029 AT TIME STEP     82, STRESS PERIOD      2
 UBDSV1 SAVING     FLOW-JA-FACE ON UNIT   1029 AT TIME STEP     82, STRESS PERIOD      2
 UBDSV06 SAVING  SOURCE-SINK MIX IN MODEL GWT_RIVERBASE    PACKAGE GWT_RIVERBASE   CONNECTED TO MODEL GWT_RIVERBASE    PACKAGE SSM              ON UNIT   1029 AT TIME STEP     82, STRESS PERIOD      2
 UBDSV06 SAVING              CNC IN MODEL GWT_RIVERBASE    PACKAGE GWT_RIVERBASE   CONNECTED TO MODEL GWT_RIVERBASE    PACKAGE CNC_0            ON UNIT   1029 AT TIME STEP     82, STRESS PERIOD      2
1
  CONCENTRATION IN LAYER   1 AT END OF TIME STEP  82 IN STRESS PERIOD    2
  ---------------------------------------------------------------------------

                1               2               3               4               5               6               7               8               9              10
 ................................................................................................................................................................
   1      1.00000         1.00000         1.00000         1.00000         1.00000         1.00000         1.00000         1.00000         1.00000         1.00000    
   2     0.999984         1.00000        0.999983         1.00000         1.00000         1.00000         1.00000         1.00000         1.00000         1.00000    
   3      1.00000        0.999983         1.00000         1.00000         1.00000         1.00000         1.00000         1.00000         1.00000         1.00000    
   4      1.00000         1.00000        0.999982         1.00000         1.00000         1.00000         1.00000         1.00000         1.00000         1.00000    
   5      1.00000         1.00002         1.00000        0.999982        0.999981         1.00000         1.00000         1.00000         1.00000         1.00000    
   6      1.00003         10.0000         1.00000        0.999981         1.00000        0.999980         1.00000         1.00000         1.00000         1.00000    
   7      1.00002         10.0000         1.00000         1.00000         1.00000         1.00000        0.999980         1.00000         1.00000         1.00000    
   8      1.00000         1.00002         1.00000         1.00000         1.00000         1.00000         1.00000        0.999979        0.999978         1.00000    
   9      1.00000         1.00000         1.00000         1.00000         1.00000         1.00000         1.00000        0.999979         1.00000         1.00000    
  10      1.00000         1.00000         1.00000         1.00000         1.00000         1.00000         1.00000         1.00000         1.00000         1.00000    
  11      1.00000         1.00000         1.00000         1.00000         1.00000         1.00000         1.00000         1.00000         1.00000         1.00000    
  12      1.00000         1.00000         1.00000         1.00000         1.00000         1.00000         1.00000         1.00000         1.00000         1.00000    
  13      1.00000         1.00000         1.00000         1.00000         1.00000         1.00000         1.00000         1.00000         1.00000         1.00000    
  14      1.00000         1.00000         1.00000         1.00000         1.00000         1.00000         1.00000         1.00000         1.00000         1.00000    
  15      1.00000         1.00000         1.00000         1.00000         1.00000         1.00000         1.00000         1.00000         1.00000         1.00000    
1
  CONCENTRATION IN LAYER   2 AT END OF TIME STEP  82 IN STRESS PERIOD    2
  ---------------------------------------------------------------------------

                1               2               3               4               5               6               7               8               9              10
 ................................................................................................................................................................
   1      1.00000         1.00000         1.00000         1.00000         1.00000         1.00000         1.00000         1.00000         1.00000         1.00000    
   2      1.00000         1.00000         1.00000         1.00000         1.00000         1.00000         1.00000         1.00000         1.00000         1.00000    
   3      1.00000         1.00000         1.00000         1.00000         1.00000         1.00000         1.00000         1.00000         1.00000         1.00000    
   4      1.00000         1.00000         1.00000         1.00000         1.00000         1.00000         1.00000         1.00000         1.00000         1.00000    
   5      1.00000         1.00000         1.00000         1.00000         1.00000         1.00000         1.00000         1.00000         1.00000         1.00000    
   6      1.00000         1.00001         1.00000         1.00000         1.00000         1.00000         1.00000         1.00000         1.00000         1.00000    
   7      1.00000         1.00000         1.00000         1.00000         1.00000         1.00000         1.00000         1.00000         1.00000         1.00000    
   8      1.00000         1.00000         1.00000         1.00000         1.00000         1.00000         1.00000         1.00000         1.00000         1.00000    
   9      1.00000         1.00000         1.00000         1.00000         1.00000         1.00000         1.00000         1.00000         1.00000         1.00000    
  10      1.00000         1.00000         1.00000         1.00000         1.00000         1.00000         1.00000         1.00000         1.00000         1.00000    
  11      1.00000         1.00000         1.00000         1.00000         1.00000         1.00000         1.00000         1.00000         1.00000         1.00000    
  12      1.00000         1.00000         1.00000         1.00000         1.00000         1.00000         1.00000         1.00000         1.00000         1.00000    
  13      1.00000         1.00000         1.00000         1.00000         1.00000         1.00000         1.00000         1.00000         1.00000         1.00000    
  14      1.00000         1.00000         1.00000         1.00000         1.00000         1.00000         1.00000         1.00000         1.00000         1.00000    
  15      1.00000         1.00000         1.00000         1.00000         1.00000         1.00000         1.00000         1.00000         1.00000         1.00000    
1
  CONCENTRATION IN LAYER   3 AT END OF TIME STEP  82 IN STRESS PERIOD    2
  ---------------------------------------------------------------------------

                1               2               3               4               5               6               7               8               9              10
 ................................................................................................................................................................
   1      1.00000         1.00000         1.00000         1.00000         1.00000         1.00000         1.00000         1.00000         1.00000         1.00000    
   2      1.00000         1.00000         1.00000         1.00000         1.00000         1.00000         1.00000         1.00000         1.00000         1.00000    
   3      1.00000         1.00000         1.00000         1.00000         1.00000         1.00000         1.00000         1.00000         1.00000         1.00000    
   4      1.00000         1.00000         1.00000         1.00000         1.00000         1.00000         1.00000         1.00000         1.00000         1.00000    
   5      1.00000         1.00000         1.00000         1.00000         1.00000         1.00000         1.00000         1.00000         1.00000         1.00000    
   6      1.00000         1.00000         1.00000         1.00000         1.00000         1.00000         1.00000         1.00000         1.00000         1.00000    
   7      1.00000         1.00000         1.00000         1.00000         1.00000         1.00000         1.00000         1.00000         1.00000         1.00000    
   8      1.00000         1.00000         1.00000         1.00000         1.00000         1.00000         1.00000         1.00000         1.00000         1.00000    
   9      1.00000         1.00000         1.00000         1.00000         1.00000         1.00000         1.00000         1.00000         1.00000         1.00000    
  10      1.00000         1.00000         1.00000         1.00000         1.00000         1.00000         1.00000         1.00000         1.00000         1.00000    
  11      1.00000         1.00000         1.00000         1.00000         1.00000         1.00000         1.00000         1.00000         1.00000         1.00000    
  12      1.00000         1.00000         1.00000         1.00000         1.00000         1.00000         1.00000         1.00000         1.00000         1.00000    
  13      1.00000         1.00000         1.00000         1.00000         1.00000         1.00000         1.00000         1.00000         1.00000         1.00000    
  14      1.00000         1.00000         1.00000         1.00000         1.00000         1.00000         1.00000         1.00000         1.00000         1.00000    
  15      1.00000         1.00000         1.00000         1.00000         1.00000         1.00000         1.00000         1.00000         1.00000         1.00000    

 CONCENTRATION WILL BE SAVED ON UNIT 1030 AT END OF TIME STEP   82, STRESS PERIOD    2


  MASS BUDGET FOR ENTIRE MODEL AT END OF TIME STEP   82, STRESS PERIOD   2
  ---------------------------------------------------------------------------------------------------

     CUMULATIVE MASS      M       RATES FOR THIS TIME STEP      M/T          PACKAGE NAME    
     ------------------                 ------------------------                     ----------------

           IN:                                      IN:
           ---                                      ---
     STORAGE-AQUEOUS =          16.0423       STORAGE-AQUEOUS =           2.0475     MST                              
                 RIV =           0.0000                   RIV =           0.0000     SSM_RIV-1                        
                 CHD =           0.0000                   CHD =           0.0000     SSM_CHD-1                        
                 CNC =           6.6850                   CNC =           0.8526     CNC_0                            

            TOTAL IN =          22.7273              TOTAL IN =           2.9000

          OUT:                                     OUT:
          ----                                     ----
     STORAGE-AQUEOUS =           7.0342       STORAGE-AQUEOUS =           0.8966     MST                              
                 RIV =           0.0000                   RIV =           0.0000     SSM_RIV-1                        
                 CHD =          15.0865                   CHD =           1.9260     SSM_CHD-1                        
                 CNC =           0.6066                   CNC =       7.7431E-02     CNC_0                            

           TOTAL OUT =          22.7273             TOTAL OUT =           2.9000

            IN - OUT =       2.1820E-09              IN - OUT =      -2.5876E-09

 PERCENT DISCREPANCY =           0.00     PERCENT DISCREPANCY =          -0.00




         TIME SUMMARY AT END OF TIME STEP   82 IN STRESS PERIOD    2
                    SECONDS     MINUTES      HOURS       DAYS        YEARS
                    -----------------------------------------------------------
   TIME STEP LENGTH  7200.0      120.00      2.0000     8.33333E-02 2.28154E-04
 STRESS PERIOD TIME 5.90400E+05  9840.0      164.00      6.8333     1.87086E-02
         TOTAL TIME 6.76800E+05  11280.      188.00      7.8333     2.14465E-02


end timestep


start timestep kper="2" kstp="83" mode="normal"

 UBDSV1 SAVING  STORAGE-AQUEOUS ON UNIT   1029 AT TIME STEP     83, STRESS PERIOD      2
 UBDSV1 SAVING     FLOW-JA-FACE ON UNIT   1029 AT TIME STEP     83, STRESS PERIOD      2
 UBDSV06 SAVING  SOURCE-SINK MIX IN MODEL GWT_RIVERBASE    PACKAGE GWT_RIVERBASE   CONNECTED TO MODEL GWT_RIVERBASE    PACKAGE SSM              ON UNIT   1029 AT TIME STEP     83, STRESS PERIOD      2
 UBDSV06 SAVING              CNC IN MODEL GWT_RIVERBASE    PACKAGE GWT_RIVERBASE   CONNECTED TO MODEL GWT_RIVERBASE    PACKAGE CNC_0            ON UNIT   1029 AT TIME STEP     83, STRESS PERIOD      2
1
  CONCENTRATION IN LAYER   1 AT END OF TIME STEP  83 IN STRESS PERIOD    2
  ---------------------------------------------------------------------------

                1               2               3               4               5               6               7               8               9              10
 ................................................................................................................................................................
   1      1.00000         1.00000         1.00000         1.00000         1.00000         1.00000         1.00000         1.00000         1.00000         1.00000    
   2     0.999983         1.00000        0.999983         1.00000         1.00000         1.00000         1.00000         1.00000         1.00000         1.00000    
   3      1.00000        0.999983         1.00000         1.00000         1.00000         1.00000         1.00000         1.00000         1.00000         1.00000    
   4      1.00000         1.00000        0.999982         1.00000         1.00000         1.00000         1.00000         1.00000         1.00000         1.00000    
   5      1.00000         1.00002         1.00000        0.999982        0.999981         1.00000         1.00000         1.00000         1.00000         1.00000    
   6      1.00003         10.0000         1.00000        0.999981         1.00000        0.999980         1.00000         1.00000         1.00000         1.00000    
   7      1.00002         10.0000         1.00000         1.00000         1.00000         1.00000        0.999980         1.00000         1.00000         1.00000    
   8      1.00000         1.00002         1.00000         1.00000         1.00000         1.00000         1.00000        0.999979        0.999978         1.00000    
   9      1.00000         1.00000         1.00000         1.00000         1.00000         1.00000         1.00000        0.999979         1.00000         1.00000    
  10      1.00000         1.00000         1.00000         1.00000         1.00000         1.00000         1.00000         1.00000         1.00000         1.00000    
  11      1.00000         1.00000         1.00000         1.00000         1.00000         1.00000         1.00000         1.00000         1.00000         1.00000    
  12      1.00000         1.00000         1.00000         1.00000         1.00000         1.00000         1.00000         1.00000         1.00000         1.00000    
  13      1.00000         1.00000         1.00000         1.00000         1.00000         1.00000         1.00000         1.00000         1.00000         1.00000    
  14      1.00000         1.00000         1.00000         1.00000         1.00000         1.00000         1.00000         1.00000         1.00000         1.00000    
  15      1.00000         1.00000         1.00000         1.00000         1.00000         1.00000         1.00000         1.00000         1.00000         1.00000    
1
  CONCENTRATION IN LAYER   2 AT END OF TIME STEP  83 IN STRESS PERIOD    2
  ---------------------------------------------------------------------------

                1               2               3               4               5               6               7               8               9              10
 ................................................................................................................................................................
   1      1.00000         1.00000         1.00000         1.00000         1.00000         1.00000         1.00000         1.00000         1.00000         1.00000    
   2      1.00000         1.00000         1.00000         1.00000         1.00000         1.00000         1.00000         1.00000         1.00000         1.00000    
   3      1.00000         1.00000         1.00000         1.00000         1.00000         1.00000         1.00000         1.00000         1.00000         1.00000    
   4      1.00000         1.00000         1.00000         1.00000         1.00000         1.00000         1.00000         1.00000         1.00000         1.00000    
   5      1.00000         1.00000         1.00000         1.00000         1.00000         1.00000         1.00000         1.00000         1.00000         1.00000    
   6      1.00000         1.00001         1.00000         1.00000         1.00000         1.00000         1.00000         1.00000         1.00000         1.00000    
   7      1.00000         1.00000         1.00000         1.00000         1.00000         1.00000         1.00000         1.00000         1.00000         1.00000    
   8      1.00000         1.00000         1.00000         1.00000         1.00000         1.00000         1.00000         1.00000         1.00000         1.00000    
   9      1.00000         1.00000         1.00000         1.00000         1.00000         1.00000         1.00000         1.00000         1.00000         1.00000    
  10      1.00000         1.00000         1.00000         1.00000         1.00000         1.00000         1.00000         1.00000         1.00000         1.00000    
  11      1.00000         1.00000         1.00000         1.00000         1.00000         1.00000         1.00000         1.00000         1.00000         1.00000    
  12      1.00000         1.00000         1.00000         1.00000         1.00000         1.00000         1.00000         1.00000         1.00000         1.00000    
  13      1.00000         1.00000         1.00000         1.00000         1.00000         1.00000         1.00000         1.00000         1.00000         1.00000    
  14      1.00000         1.00000         1.00000         1.00000         1.00000         1.00000         1.00000         1.00000         1.00000         1.00000    
  15      1.00000         1.00000         1.00000         1.00000         1.00000         1.00000         1.00000         1.00000         1.00000         1.00000    
1
  CONCENTRATION IN LAYER   3 AT END OF TIME STEP  83 IN STRESS PERIOD    2
  ---------------------------------------------------------------------------

                1               2               3               4               5               6               7               8               9              10
 ................................................................................................................................................................
   1      1.00000         1.00000         1.00000         1.00000         1.00000         1.00000         1.00000         1.00000         1.00000         1.00000    
   2      1.00000         1.00000         1.00000         1.00000         1.00000         1.00000         1.00000         1.00000         1.00000         1.00000    
   3      1.00000         1.00000         1.00000         1.00000         1.00000         1.00000         1.00000         1.00000         1.00000         1.00000    
   4      1.00000         1.00000         1.00000         1.00000         1.00000         1.00000         1.00000         1.00000         1.00000         1.00000    
   5      1.00000         1.00000         1.00000         1.00000         1.00000         1.00000         1.00000         1.00000         1.00000         1.00000    
   6      1.00000         1.00000         1.00000         1.00000         1.00000         1.00000         1.00000         1.00000         1.00000         1.00000    
   7      1.00000         1.00000         1.00000         1.00000         1.00000         1.00000         1.00000         1.00000         1.00000         1.00000    
   8      1.00000         1.00000         1.00000         1.00000         1.00000         1.00000         1.00000         1.00000         1.00000         1.00000    
   9      1.00000         1.00000         1.00000         1.00000         1.00000         1.00000         1.00000         1.00000         1.00000         1.00000    
  10      1.00000         1.00000         1.00000         1.00000         1.00000         1.00000         1.00000         1.00000         1.00000         1.00000    
  11      1.00000         1.00000         1.00000         1.00000         1.00000         1.00000         1.00000         1.00000         1.00000         1.00000    
  12      1.00000         1.00000         1.00000         1.00000         1.00000         1.00000         1.00000         1.00000         1.00000         1.00000    
  13      1.00000         1.00000         1.00000         1.00000         1.00000         1.00000         1.00000         1.00000         1.00000         1.00000    
  14      1.00000         1.00000         1.00000         1.00000         1.00000         1.00000         1.00000         1.00000         1.00000         1.00000    
  15      1.00000         1.00000         1.00000         1.00000         1.00000         1.00000         1.00000         1.00000         1.00000         1.00000    

 CONCENTRATION WILL BE SAVED ON UNIT 1030 AT END OF TIME STEP   83, STRESS PERIOD    2


  MASS BUDGET FOR ENTIRE MODEL AT END OF TIME STEP   83, STRESS PERIOD   2
  ---------------------------------------------------------------------------------------------------

     CUMULATIVE MASS      M       RATES FOR THIS TIME STEP      M/T          PACKAGE NAME    
     ------------------                 ------------------------                     ----------------

           IN:                                      IN:
           ---                                      ---
     STORAGE-AQUEOUS =          16.2129       STORAGE-AQUEOUS =           2.0475     MST                              
                 RIV =           0.0000                   RIV =           0.0000     SSM_RIV-1                        
                 CHD =           0.0000                   CHD =           0.0000     SSM_CHD-1                        
                 CNC =           6.7560                   CNC =           0.8526     CNC_0                            

            TOTAL IN =          22.9690              TOTAL IN =           2.9000

          OUT:                                     OUT:
          ----                                     ----
     STORAGE-AQUEOUS =           7.1089       STORAGE-AQUEOUS =           0.8966     MST                              
                 RIV =           0.0000                   RIV =           0.0000     SSM_RIV-1                        
                 CHD =          15.2470                   CHD =           1.9260     SSM_CHD-1                        
                 CNC =           0.6130                   CNC =       7.7431E-02     CNC_0                            

           TOTAL OUT =          22.9690             TOTAL OUT =           2.9000

            IN - OUT =       2.2398E-09              IN - OUT =       6.9256E-10

 PERCENT DISCREPANCY =           0.00     PERCENT DISCREPANCY =           0.00




         TIME SUMMARY AT END OF TIME STEP   83 IN STRESS PERIOD    2
                    SECONDS     MINUTES      HOURS       DAYS        YEARS
                    -----------------------------------------------------------
   TIME STEP LENGTH  7200.0      120.00      2.0000     8.33333E-02 2.28154E-04
 STRESS PERIOD TIME 5.97600E+05  9960.0      166.00      6.9167     1.89368E-02
         TOTAL TIME 6.84000E+05  11400.      190.00      7.9167     2.16747E-02


end timestep


start timestep kper="2" kstp="84" mode="normal"

 UBDSV1 SAVING  STORAGE-AQUEOUS ON UNIT   1029 AT TIME STEP     84, STRESS PERIOD      2
 UBDSV1 SAVING     FLOW-JA-FACE ON UNIT   1029 AT TIME STEP     84, STRESS PERIOD      2
 UBDSV06 SAVING  SOURCE-SINK MIX IN MODEL GWT_RIVERBASE    PACKAGE GWT_RIVERBASE   CONNECTED TO MODEL GWT_RIVERBASE    PACKAGE SSM              ON UNIT   1029 AT TIME STEP     84, STRESS PERIOD      2
 UBDSV06 SAVING              CNC IN MODEL GWT_RIVERBASE    PACKAGE GWT_RIVERBASE   CONNECTED TO MODEL GWT_RIVERBASE    PACKAGE CNC_0            ON UNIT   1029 AT TIME STEP     84, STRESS PERIOD      2
1
  CONCENTRATION IN LAYER   1 AT END OF TIME STEP  84 IN STRESS PERIOD    2
  ---------------------------------------------------------------------------

                1               2               3               4               5               6               7               8               9              10
 ................................................................................................................................................................
   1      1.00000         1.00000         1.00000         1.00000         1.00000         1.00000         1.00000         1.00000         1.00000         1.00000    
   2     0.999983         1.00000        0.999983         1.00000         1.00000         1.00000         1.00000         1.00000         1.00000         1.00000    
   3      1.00000        0.999982         1.00000         1.00000         1.00000         1.00000         1.00000         1.00000         1.00000         1.00000    
   4      1.00000         1.00000        0.999982         1.00000         1.00000         1.00000         1.00000         1.00000         1.00000         1.00000    
   5      1.00000         1.00002         1.00000        0.999981        0.999980         1.00000         1.00000         1.00000         1.00000         1.00000    
   6      1.00003         10.0000         1.00000        0.999981         1.00000        0.999980         1.00000         1.00000         1.00000         1.00000    
   7      1.00002         10.0000         1.00000         1.00000         1.00000         1.00000        0.999979         1.00000         1.00000         1.00000    
   8      1.00000         1.00002         1.00000         1.00000         1.00000         1.00000         1.00000        0.999979        0.999978         1.00000    
   9      1.00000         1.00000         1.00000         1.00000         1.00000         1.00000         1.00000        0.999978         1.00000         1.00000    
  10      1.00000         1.00000         1.00000         1.00000         1.00000         1.00000         1.00000         1.00000         1.00000         1.00000    
  11      1.00000         1.00000         1.00000         1.00000         1.00000         1.00000         1.00000         1.00000         1.00000         1.00000    
  12      1.00000         1.00000         1.00000         1.00000         1.00000         1.00000         1.00000         1.00000         1.00000         1.00000    
  13      1.00000         1.00000         1.00000         1.00000         1.00000         1.00000         1.00000         1.00000         1.00000         1.00000    
  14      1.00000         1.00000         1.00000         1.00000         1.00000         1.00000         1.00000         1.00000         1.00000         1.00000    
  15      1.00000         1.00000         1.00000         1.00000         1.00000         1.00000         1.00000         1.00000         1.00000         1.00000    
1
  CONCENTRATION IN LAYER   2 AT END OF TIME STEP  84 IN STRESS PERIOD    2
  ---------------------------------------------------------------------------

                1               2               3               4               5               6               7               8               9              10
 ................................................................................................................................................................
   1      1.00000         1.00000         1.00000         1.00000         1.00000         1.00000         1.00000         1.00000         1.00000         1.00000    
   2      1.00000         1.00000         1.00000         1.00000         1.00000         1.00000         1.00000         1.00000         1.00000         1.00000    
   3      1.00000         1.00000         1.00000         1.00000         1.00000         1.00000         1.00000         1.00000         1.00000         1.00000    
   4      1.00000         1.00000         1.00000         1.00000         1.00000         1.00000         1.00000         1.00000         1.00000         1.00000    
   5      1.00000         1.00000         1.00000         1.00000         1.00000         1.00000         1.00000         1.00000         1.00000         1.00000    
   6      1.00000         1.00001         1.00000         1.00000         1.00000         1.00000         1.00000         1.00000         1.00000         1.00000    
   7      1.00000         1.00000         1.00000         1.00000         1.00000         1.00000         1.00000         1.00000         1.00000         1.00000    
   8      1.00000         1.00000         1.00000         1.00000         1.00000         1.00000         1.00000         1.00000         1.00000         1.00000    
   9      1.00000         1.00000         1.00000         1.00000         1.00000         1.00000         1.00000         1.00000         1.00000         1.00000    
  10      1.00000         1.00000         1.00000         1.00000         1.00000         1.00000         1.00000         1.00000         1.00000         1.00000    
  11      1.00000         1.00000         1.00000         1.00000         1.00000         1.00000         1.00000         1.00000         1.00000         1.00000    
  12      1.00000         1.00000         1.00000         1.00000         1.00000         1.00000         1.00000         1.00000         1.00000         1.00000    
  13      1.00000         1.00000         1.00000         1.00000         1.00000         1.00000         1.00000         1.00000         1.00000         1.00000    
  14      1.00000         1.00000         1.00000         1.00000         1.00000         1.00000         1.00000         1.00000         1.00000         1.00000    
  15      1.00000         1.00000         1.00000         1.00000         1.00000         1.00000         1.00000         1.00000         1.00000         1.00000    
1
  CONCENTRATION IN LAYER   3 AT END OF TIME STEP  84 IN STRESS PERIOD    2
  ---------------------------------------------------------------------------

                1               2               3               4               5               6               7               8               9              10
 ................................................................................................................................................................
   1      1.00000         1.00000         1.00000         1.00000         1.00000         1.00000         1.00000         1.00000         1.00000         1.00000    
   2      1.00000         1.00000         1.00000         1.00000         1.00000         1.00000         1.00000         1.00000         1.00000         1.00000    
   3      1.00000         1.00000         1.00000         1.00000         1.00000         1.00000         1.00000         1.00000         1.00000         1.00000    
   4      1.00000         1.00000         1.00000         1.00000         1.00000         1.00000         1.00000         1.00000         1.00000         1.00000    
   5      1.00000         1.00000         1.00000         1.00000         1.00000         1.00000         1.00000         1.00000         1.00000         1.00000    
   6      1.00000         1.00000         1.00000         1.00000         1.00000         1.00000         1.00000         1.00000         1.00000         1.00000    
   7      1.00000         1.00000         1.00000         1.00000         1.00000         1.00000         1.00000         1.00000         1.00000         1.00000    
   8      1.00000         1.00000         1.00000         1.00000         1.00000         1.00000         1.00000         1.00000         1.00000         1.00000    
   9      1.00000         1.00000         1.00000         1.00000         1.00000         1.00000         1.00000         1.00000         1.00000         1.00000    
  10      1.00000         1.00000         1.00000         1.00000         1.00000         1.00000         1.00000         1.00000         1.00000         1.00000    
  11      1.00000         1.00000         1.00000         1.00000         1.00000         1.00000         1.00000         1.00000         1.00000         1.00000    
  12      1.00000         1.00000         1.00000         1.00000         1.00000         1.00000         1.00000         1.00000         1.00000         1.00000    
  13      1.00000         1.00000         1.00000         1.00000         1.00000         1.00000         1.00000         1.00000         1.00000         1.00000    
  14      1.00000         1.00000         1.00000         1.00000         1.00000         1.00000         1.00000         1.00000         1.00000         1.00000    
  15      1.00000         1.00000         1.00000         1.00000         1.00000         1.00000         1.00000         1.00000         1.00000         1.00000    

 CONCENTRATION WILL BE SAVED ON UNIT 1030 AT END OF TIME STEP   84, STRESS PERIOD    2


  MASS BUDGET FOR ENTIRE MODEL AT END OF TIME STEP   84, STRESS PERIOD   2
  ---------------------------------------------------------------------------------------------------

     CUMULATIVE MASS      M       RATES FOR THIS TIME STEP      M/T          PACKAGE NAME    
     ------------------                 ------------------------                     ----------------

           IN:                                      IN:
           ---                                      ---
     STORAGE-AQUEOUS =          16.3836       STORAGE-AQUEOUS =           2.0475     MST                              
                 RIV =           0.0000                   RIV =           0.0000     SSM_RIV-1                        
                 CHD =           0.0000                   CHD =           0.0000     SSM_CHD-1                        
                 CNC =           6.8271                   CNC =           0.8526     CNC_0                            

            TOTAL IN =          23.2106              TOTAL IN =           2.9000

          OUT:                                     OUT:
          ----                                     ----
     STORAGE-AQUEOUS =           7.1836       STORAGE-AQUEOUS =           0.8966     MST                              
                 RIV =           0.0000                   RIV =           0.0000     SSM_RIV-1                        
                 CHD =          15.4075                   CHD =           1.9260     SSM_CHD-1                        
                 CNC =           0.6195                   CNC =       7.7431E-02     CNC_0                            

           TOTAL OUT =          23.2106             TOTAL OUT =           2.9000

            IN - OUT =       2.1695E-09              IN - OUT =      -8.4280E-10

 PERCENT DISCREPANCY =           0.00     PERCENT DISCREPANCY =          -0.00




         TIME SUMMARY AT END OF TIME STEP   84 IN STRESS PERIOD    2
                    SECONDS     MINUTES      HOURS       DAYS        YEARS
                    -----------------------------------------------------------
   TIME STEP LENGTH  7200.0      120.00      2.0000     8.33333E-02 2.28154E-04
 STRESS PERIOD TIME 6.04800E+05  10080.      168.00      7.0000     1.91650E-02
         TOTAL TIME 6.91200E+05  11520.      192.00      8.0000     2.19028E-02


end timestep


start timestep kper="2" kstp="85" mode="normal"

 UBDSV1 SAVING  STORAGE-AQUEOUS ON UNIT   1029 AT TIME STEP     85, STRESS PERIOD      2
 UBDSV1 SAVING     FLOW-JA-FACE ON UNIT   1029 AT TIME STEP     85, STRESS PERIOD      2
 UBDSV06 SAVING  SOURCE-SINK MIX IN MODEL GWT_RIVERBASE    PACKAGE GWT_RIVERBASE   CONNECTED TO MODEL GWT_RIVERBASE    PACKAGE SSM              ON UNIT   1029 AT TIME STEP     85, STRESS PERIOD      2
 UBDSV06 SAVING              CNC IN MODEL GWT_RIVERBASE    PACKAGE GWT_RIVERBASE   CONNECTED TO MODEL GWT_RIVERBASE    PACKAGE CNC_0            ON UNIT   1029 AT TIME STEP     85, STRESS PERIOD      2
1
  CONCENTRATION IN LAYER   1 AT END OF TIME STEP  85 IN STRESS PERIOD    2
  ---------------------------------------------------------------------------

                1               2               3               4               5               6               7               8               9              10
 ................................................................................................................................................................
   1      1.00000         1.00000         1.00000         1.00000         1.00000         1.00000         1.00000         1.00000         1.00000         1.00000    
   2     0.999983         1.00000        0.999983         1.00000         1.00000         1.00000         1.00000         1.00000         1.00000         1.00000    
   3      1.00000        0.999982         1.00000         1.00000         1.00000         1.00000         1.00000         1.00000         1.00000         1.00000    
   4      1.00000         1.00000        0.999982         1.00000         1.00000         1.00000         1.00000         1.00000         1.00000         1.00000    
   5      1.00000         1.00002         1.00000        0.999981        0.999980         1.00000         1.00000         1.00000         1.00000         1.00000    
   6      1.00003         10.0000         1.00000        0.999981         1.00000        0.999980         1.00000         1.00000         1.00000         1.00000    
   7      1.00002         10.0000         1.00000         1.00000         1.00000         1.00000        0.999979         1.00000         1.00000         1.00000    
   8      1.00000         1.00002         1.00000         1.00000         1.00000         1.00000         1.00000        0.999979        0.999978         1.00000    
   9      1.00000         1.00000         1.00000         1.00000         1.00000         1.00000         1.00000        0.999978         1.00000         1.00000    
  10      1.00000         1.00000         1.00000         1.00000         1.00000         1.00000         1.00000         1.00000         1.00000         1.00000    
  11      1.00000         1.00000         1.00000         1.00000         1.00000         1.00000         1.00000         1.00000         1.00000         1.00000    
  12      1.00000         1.00000         1.00000         1.00000         1.00000         1.00000         1.00000         1.00000         1.00000         1.00000    
  13      1.00000         1.00000         1.00000         1.00000         1.00000         1.00000         1.00000         1.00000         1.00000         1.00000    
  14      1.00000         1.00000         1.00000         1.00000         1.00000         1.00000         1.00000         1.00000         1.00000         1.00000    
  15      1.00000         1.00000         1.00000         1.00000         1.00000         1.00000         1.00000         1.00000         1.00000         1.00000    
1
  CONCENTRATION IN LAYER   2 AT END OF TIME STEP  85 IN STRESS PERIOD    2
  ---------------------------------------------------------------------------

                1               2               3               4               5               6               7               8               9              10
 ................................................................................................................................................................
   1      1.00000         1.00000         1.00000         1.00000         1.00000         1.00000         1.00000         1.00000         1.00000         1.00000    
   2      1.00000         1.00000         1.00000         1.00000         1.00000         1.00000         1.00000         1.00000         1.00000         1.00000    
   3      1.00000         1.00000         1.00000         1.00000         1.00000         1.00000         1.00000         1.00000         1.00000         1.00000    
   4      1.00000         1.00000         1.00000         1.00000         1.00000         1.00000         1.00000         1.00000         1.00000         1.00000    
   5      1.00000         1.00000         1.00000         1.00000         1.00000         1.00000         1.00000         1.00000         1.00000         1.00000    
   6      1.00000         1.00001         1.00000         1.00000         1.00000         1.00000         1.00000         1.00000         1.00000         1.00000    
   7      1.00000         1.00000         1.00000         1.00000         1.00000         1.00000         1.00000         1.00000         1.00000         1.00000    
   8      1.00000         1.00000         1.00000         1.00000         1.00000         1.00000         1.00000         1.00000         1.00000         1.00000    
   9      1.00000         1.00000         1.00000         1.00000         1.00000         1.00000         1.00000         1.00000         1.00000         1.00000    
  10      1.00000         1.00000         1.00000         1.00000         1.00000         1.00000         1.00000         1.00000         1.00000         1.00000    
  11      1.00000         1.00000         1.00000         1.00000         1.00000         1.00000         1.00000         1.00000         1.00000         1.00000    
  12      1.00000         1.00000         1.00000         1.00000         1.00000         1.00000         1.00000         1.00000         1.00000         1.00000    
  13      1.00000         1.00000         1.00000         1.00000         1.00000         1.00000         1.00000         1.00000         1.00000         1.00000    
  14      1.00000         1.00000         1.00000         1.00000         1.00000         1.00000         1.00000         1.00000         1.00000         1.00000    
  15      1.00000         1.00000         1.00000         1.00000         1.00000         1.00000         1.00000         1.00000         1.00000         1.00000    
1
  CONCENTRATION IN LAYER   3 AT END OF TIME STEP  85 IN STRESS PERIOD    2
  ---------------------------------------------------------------------------

                1               2               3               4               5               6               7               8               9              10
 ................................................................................................................................................................
   1      1.00000         1.00000         1.00000         1.00000         1.00000         1.00000         1.00000         1.00000         1.00000         1.00000    
   2      1.00000         1.00000         1.00000         1.00000         1.00000         1.00000         1.00000         1.00000         1.00000         1.00000    
   3      1.00000         1.00000         1.00000         1.00000         1.00000         1.00000         1.00000         1.00000         1.00000         1.00000    
   4      1.00000         1.00000         1.00000         1.00000         1.00000         1.00000         1.00000         1.00000         1.00000         1.00000    
   5      1.00000         1.00000         1.00000         1.00000         1.00000         1.00000         1.00000         1.00000         1.00000         1.00000    
   6      1.00000         1.00000         1.00000         1.00000         1.00000         1.00000         1.00000         1.00000         1.00000         1.00000    
   7      1.00000         1.00000         1.00000         1.00000         1.00000         1.00000         1.00000         1.00000         1.00000         1.00000    
   8      1.00000         1.00000         1.00000         1.00000         1.00000         1.00000         1.00000         1.00000         1.00000         1.00000    
   9      1.00000         1.00000         1.00000         1.00000         1.00000         1.00000         1.00000         1.00000         1.00000         1.00000    
  10      1.00000         1.00000         1.00000         1.00000         1.00000         1.00000         1.00000         1.00000         1.00000         1.00000    
  11      1.00000         1.00000         1.00000         1.00000         1.00000         1.00000         1.00000         1.00000         1.00000         1.00000    
  12      1.00000         1.00000         1.00000         1.00000         1.00000         1.00000         1.00000         1.00000         1.00000         1.00000    
  13      1.00000         1.00000         1.00000         1.00000         1.00000         1.00000         1.00000         1.00000         1.00000         1.00000    
  14      1.00000         1.00000         1.00000         1.00000         1.00000         1.00000         1.00000         1.00000         1.00000         1.00000    
  15      1.00000         1.00000         1.00000         1.00000         1.00000         1.00000         1.00000         1.00000         1.00000         1.00000    

 CONCENTRATION WILL BE SAVED ON UNIT 1030 AT END OF TIME STEP   85, STRESS PERIOD    2


  MASS BUDGET FOR ENTIRE MODEL AT END OF TIME STEP   85, STRESS PERIOD   2
  ---------------------------------------------------------------------------------------------------

     CUMULATIVE MASS      M       RATES FOR THIS TIME STEP      M/T          PACKAGE NAME    
     ------------------                 ------------------------                     ----------------

           IN:                                      IN:
           ---                                      ---
     STORAGE-AQUEOUS =          16.5542       STORAGE-AQUEOUS =           2.0475     MST                              
                 RIV =           0.0000                   RIV =           0.0000     SSM_RIV-1                        
                 CHD =           0.0000                   CHD =           0.0000     SSM_CHD-1                        
                 CNC =           6.8981                   CNC =           0.8526     CNC_0                            

            TOTAL IN =          23.4523              TOTAL IN =           2.9000

          OUT:                                     OUT:
          ----                                     ----
     STORAGE-AQUEOUS =           7.2584       STORAGE-AQUEOUS =           0.8966     MST                              
                 RIV =           0.0000                   RIV =           0.0000     SSM_RIV-1                        
                 CHD =          15.5680                   CHD =           1.9260     SSM_CHD-1                        
                 CNC =           0.6259                   CNC =       7.7431E-02     CNC_0                            

           TOTAL OUT =          23.4523             TOTAL OUT =           2.9000

            IN - OUT =       2.0702E-09              IN - OUT =      -1.1924E-09

 PERCENT DISCREPANCY =           0.00     PERCENT DISCREPANCY =          -0.00




         TIME SUMMARY AT END OF TIME STEP   85 IN STRESS PERIOD    2
                    SECONDS     MINUTES      HOURS       DAYS        YEARS
                    -----------------------------------------------------------
   TIME STEP LENGTH  7200.0      120.00      2.0000     8.33333E-02 2.28154E-04
 STRESS PERIOD TIME 6.12000E+05  10200.      170.00      7.0833     1.93931E-02
         TOTAL TIME 6.98400E+05  11640.      194.00      8.0833     2.21310E-02


end timestep


start timestep kper="2" kstp="86" mode="normal"

 UBDSV1 SAVING  STORAGE-AQUEOUS ON UNIT   1029 AT TIME STEP     86, STRESS PERIOD      2
 UBDSV1 SAVING     FLOW-JA-FACE ON UNIT   1029 AT TIME STEP     86, STRESS PERIOD      2
 UBDSV06 SAVING  SOURCE-SINK MIX IN MODEL GWT_RIVERBASE    PACKAGE GWT_RIVERBASE   CONNECTED TO MODEL GWT_RIVERBASE    PACKAGE SSM              ON UNIT   1029 AT TIME STEP     86, STRESS PERIOD      2
 UBDSV06 SAVING              CNC IN MODEL GWT_RIVERBASE    PACKAGE GWT_RIVERBASE   CONNECTED TO MODEL GWT_RIVERBASE    PACKAGE CNC_0            ON UNIT   1029 AT TIME STEP     86, STRESS PERIOD      2
1
  CONCENTRATION IN LAYER   1 AT END OF TIME STEP  86 IN STRESS PERIOD    2
  ---------------------------------------------------------------------------

                1               2               3               4               5               6               7               8               9              10
 ................................................................................................................................................................
   1      1.00000         1.00000         1.00000         1.00000         1.00000         1.00000         1.00000         1.00000         1.00000         1.00000    
   2     0.999983         1.00000        0.999982         1.00000         1.00000         1.00000         1.00000         1.00000         1.00000         1.00000    
   3      1.00000        0.999982         1.00000         1.00000         1.00000         1.00000         1.00000         1.00000         1.00000         1.00000    
   4      1.00000         1.00000        0.999982         1.00000         1.00000         1.00000         1.00000         1.00000         1.00000         1.00000    
   5      1.00000         1.00002         1.00000        0.999981        0.999980         1.00000         1.00000         1.00000         1.00000         1.00000    
   6      1.00003         10.0000         1.00000        0.999981         1.00000        0.999979         1.00000         1.00000         1.00000         1.00000    
   7      1.00002         10.0000         1.00000         1.00000         1.00000         1.00000        0.999979         1.00000         1.00000         1.00000    
   8      1.00000         1.00002         1.00000         1.00000         1.00000         1.00000         1.00000        0.999978        0.999977         1.00000    
   9      1.00000         1.00000         1.00000         1.00000         1.00000         1.00000         1.00000        0.999978         1.00000         1.00000    
  10      1.00000         1.00000         1.00000         1.00000         1.00000         1.00000         1.00000         1.00000         1.00000         1.00000    
  11      1.00000         1.00000         1.00000         1.00000         1.00000         1.00000         1.00000         1.00000         1.00000         1.00000    
  12      1.00000         1.00000         1.00000         1.00000         1.00000         1.00000         1.00000         1.00000         1.00000         1.00000    
  13      1.00000         1.00000         1.00000         1.00000         1.00000         1.00000         1.00000         1.00000         1.00000         1.00000    
  14      1.00000         1.00000         1.00000         1.00000         1.00000         1.00000         1.00000         1.00000         1.00000         1.00000    
  15      1.00000         1.00000         1.00000         1.00000         1.00000         1.00000         1.00000         1.00000         1.00000         1.00000    
1
  CONCENTRATION IN LAYER   2 AT END OF TIME STEP  86 IN STRESS PERIOD    2
  ---------------------------------------------------------------------------

                1               2               3               4               5               6               7               8               9              10
 ................................................................................................................................................................
   1      1.00000         1.00000         1.00000         1.00000         1.00000         1.00000         1.00000         1.00000         1.00000         1.00000    
   2      1.00000         1.00000         1.00000         1.00000         1.00000         1.00000         1.00000         1.00000         1.00000         1.00000    
   3      1.00000         1.00000         1.00000         1.00000         1.00000         1.00000         1.00000         1.00000         1.00000         1.00000    
   4      1.00000         1.00000         1.00000         1.00000         1.00000         1.00000         1.00000         1.00000         1.00000         1.00000    
   5      1.00000         1.00000         1.00000         1.00000         1.00000         1.00000         1.00000         1.00000         1.00000         1.00000    
   6      1.00000         1.00001         1.00000         1.00000         1.00000         1.00000         1.00000         1.00000         1.00000         1.00000    
   7      1.00000         1.00000         1.00000         1.00000         1.00000         1.00000         1.00000         1.00000         1.00000         1.00000    
   8      1.00000         1.00000         1.00000         1.00000         1.00000         1.00000         1.00000         1.00000         1.00000         1.00000    
   9      1.00000         1.00000         1.00000         1.00000         1.00000         1.00000         1.00000         1.00000         1.00000         1.00000    
  10      1.00000         1.00000         1.00000         1.00000         1.00000         1.00000         1.00000         1.00000         1.00000         1.00000    
  11      1.00000         1.00000         1.00000         1.00000         1.00000         1.00000         1.00000         1.00000         1.00000         1.00000    
  12      1.00000         1.00000         1.00000         1.00000         1.00000         1.00000         1.00000         1.00000         1.00000         1.00000    
  13      1.00000         1.00000         1.00000         1.00000         1.00000         1.00000         1.00000         1.00000         1.00000         1.00000    
  14      1.00000         1.00000         1.00000         1.00000         1.00000         1.00000         1.00000         1.00000         1.00000         1.00000    
  15      1.00000         1.00000         1.00000         1.00000         1.00000         1.00000         1.00000         1.00000         1.00000         1.00000    
1
  CONCENTRATION IN LAYER   3 AT END OF TIME STEP  86 IN STRESS PERIOD    2
  ---------------------------------------------------------------------------

                1               2               3               4               5               6               7               8               9              10
 ................................................................................................................................................................
   1      1.00000         1.00000         1.00000         1.00000         1.00000         1.00000         1.00000         1.00000         1.00000         1.00000    
   2      1.00000         1.00000         1.00000         1.00000         1.00000         1.00000         1.00000         1.00000         1.00000         1.00000    
   3      1.00000         1.00000         1.00000         1.00000         1.00000         1.00000         1.00000         1.00000         1.00000         1.00000    
   4      1.00000         1.00000         1.00000         1.00000         1.00000         1.00000         1.00000         1.00000         1.00000         1.00000    
   5      1.00000         1.00000         1.00000         1.00000         1.00000         1.00000         1.00000         1.00000         1.00000         1.00000    
   6      1.00000         1.00000         1.00000         1.00000         1.00000         1.00000         1.00000         1.00000         1.00000         1.00000    
   7      1.00000         1.00000         1.00000         1.00000         1.00000         1.00000         1.00000         1.00000         1.00000         1.00000    
   8      1.00000         1.00000         1.00000         1.00000         1.00000         1.00000         1.00000         1.00000         1.00000         1.00000    
   9      1.00000         1.00000         1.00000         1.00000         1.00000         1.00000         1.00000         1.00000         1.00000         1.00000    
  10      1.00000         1.00000         1.00000         1.00000         1.00000         1.00000         1.00000         1.00000         1.00000         1.00000    
  11      1.00000         1.00000         1.00000         1.00000         1.00000         1.00000         1.00000         1.00000         1.00000         1.00000    
  12      1.00000         1.00000         1.00000         1.00000         1.00000         1.00000         1.00000         1.00000         1.00000         1.00000    
  13      1.00000         1.00000         1.00000         1.00000         1.00000         1.00000         1.00000         1.00000         1.00000         1.00000    
  14      1.00000         1.00000         1.00000         1.00000         1.00000         1.00000         1.00000         1.00000         1.00000         1.00000    
  15      1.00000         1.00000         1.00000         1.00000         1.00000         1.00000         1.00000         1.00000         1.00000         1.00000    

 CONCENTRATION WILL BE SAVED ON UNIT 1030 AT END OF TIME STEP   86, STRESS PERIOD    2


  MASS BUDGET FOR ENTIRE MODEL AT END OF TIME STEP   86, STRESS PERIOD   2
  ---------------------------------------------------------------------------------------------------

     CUMULATIVE MASS      M       RATES FOR THIS TIME STEP      M/T          PACKAGE NAME    
     ------------------                 ------------------------                     ----------------

           IN:                                      IN:
           ---                                      ---
     STORAGE-AQUEOUS =          16.7248       STORAGE-AQUEOUS =           2.0475     MST                              
                 RIV =           0.0000                   RIV =           0.0000     SSM_RIV-1                        
                 CHD =           0.0000                   CHD =           0.0000     SSM_CHD-1                        
                 CNC =           6.9692                   CNC =           0.8526     CNC_0                            

            TOTAL IN =          23.6940              TOTAL IN =           2.9000

          OUT:                                     OUT:
          ----                                     ----
     STORAGE-AQUEOUS =           7.3331       STORAGE-AQUEOUS =           0.8966     MST                              
                 RIV =           0.0000                   RIV =           0.0000     SSM_RIV-1                        
                 CHD =          15.7285                   CHD =           1.9260     SSM_CHD-1                        
                 CNC =           0.6324                   CNC =       7.7431E-02     CNC_0                            

           TOTAL OUT =          23.6940             TOTAL OUT =           2.9000

            IN - OUT =       2.0284E-09              IN - OUT =      -5.0094E-10

 PERCENT DISCREPANCY =           0.00     PERCENT DISCREPANCY =          -0.00




         TIME SUMMARY AT END OF TIME STEP   86 IN STRESS PERIOD    2
                    SECONDS     MINUTES      HOURS       DAYS        YEARS
                    -----------------------------------------------------------
   TIME STEP LENGTH  7200.0      120.00      2.0000     8.33333E-02 2.28154E-04
 STRESS PERIOD TIME 6.19200E+05  10320.      172.00      7.1667     1.96213E-02
         TOTAL TIME 7.05600E+05  11760.      196.00      8.1667     2.23591E-02


end timestep


start timestep kper="2" kstp="87" mode="normal"

 UBDSV1 SAVING  STORAGE-AQUEOUS ON UNIT   1029 AT TIME STEP     87, STRESS PERIOD      2
 UBDSV1 SAVING     FLOW-JA-FACE ON UNIT   1029 AT TIME STEP     87, STRESS PERIOD      2
 UBDSV06 SAVING  SOURCE-SINK MIX IN MODEL GWT_RIVERBASE    PACKAGE GWT_RIVERBASE   CONNECTED TO MODEL GWT_RIVERBASE    PACKAGE SSM              ON UNIT   1029 AT TIME STEP     87, STRESS PERIOD      2
 UBDSV06 SAVING              CNC IN MODEL GWT_RIVERBASE    PACKAGE GWT_RIVERBASE   CONNECTED TO MODEL GWT_RIVERBASE    PACKAGE CNC_0            ON UNIT   1029 AT TIME STEP     87, STRESS PERIOD      2
1
  CONCENTRATION IN LAYER   1 AT END OF TIME STEP  87 IN STRESS PERIOD    2
  ---------------------------------------------------------------------------

                1               2               3               4               5               6               7               8               9              10
 ................................................................................................................................................................
   1      1.00000         1.00000         1.00000         1.00000         1.00000         1.00000         1.00000         1.00000         1.00000         1.00000    
   2     0.999983         1.00000        0.999982         1.00000         1.00000         1.00000         1.00000         1.00000         1.00000         1.00000    
   3      1.00000        0.999982         1.00000         1.00000         1.00000         1.00000         1.00000         1.00000         1.00000         1.00000    
   4      1.00000         1.00000        0.999981         1.00000         1.00000         1.00000         1.00000         1.00000         1.00000         1.00000    
   5      1.00000         1.00002         1.00000        0.999981        0.999980         1.00000         1.00000         1.00000         1.00000         1.00000    
   6      1.00003         10.0000         1.00000        0.999980         1.00000        0.999979         1.00000         1.00000         1.00000         1.00000    
   7      1.00002         10.0000         1.00000         1.00000         1.00000         1.00000        0.999979         1.00000         1.00000         1.00000    
   8      1.00000         1.00002         1.00000         1.00000         1.00000         1.00000         1.00000        0.999978        0.999977         1.00000    
   9      1.00000         1.00000         1.00000         1.00000         1.00000         1.00000         1.00000        0.999978         1.00000         1.00000    
  10      1.00000         1.00000         1.00000         1.00000         1.00000         1.00000         1.00000         1.00000         1.00000         1.00000    
  11      1.00000         1.00000         1.00000         1.00000         1.00000         1.00000         1.00000         1.00000         1.00000         1.00000    
  12      1.00000         1.00000         1.00000         1.00000         1.00000         1.00000         1.00000         1.00000         1.00000         1.00000    
  13      1.00000         1.00000         1.00000         1.00000         1.00000         1.00000         1.00000         1.00000         1.00000         1.00000    
  14      1.00000         1.00000         1.00000         1.00000         1.00000         1.00000         1.00000         1.00000         1.00000         1.00000    
  15      1.00000         1.00000         1.00000         1.00000         1.00000         1.00000         1.00000         1.00000         1.00000         1.00000    
1
  CONCENTRATION IN LAYER   2 AT END OF TIME STEP  87 IN STRESS PERIOD    2
  ---------------------------------------------------------------------------

                1               2               3               4               5               6               7               8               9              10
 ................................................................................................................................................................
   1      1.00000         1.00000         1.00000         1.00000         1.00000         1.00000         1.00000         1.00000         1.00000         1.00000    
   2      1.00000         1.00000         1.00000         1.00000         1.00000         1.00000         1.00000         1.00000         1.00000         1.00000    
   3      1.00000         1.00000         1.00000         1.00000         1.00000         1.00000         1.00000         1.00000         1.00000         1.00000    
   4      1.00000         1.00000         1.00000         1.00000         1.00000         1.00000         1.00000         1.00000         1.00000         1.00000    
   5      1.00000         1.00000         1.00000         1.00000         1.00000         1.00000         1.00000         1.00000         1.00000         1.00000    
   6      1.00000         1.00001         1.00000         1.00000         1.00000         1.00000         1.00000         1.00000         1.00000         1.00000    
   7      1.00000         1.00000         1.00000         1.00000         1.00000         1.00000         1.00000         1.00000         1.00000         1.00000    
   8      1.00000         1.00000         1.00000         1.00000         1.00000         1.00000         1.00000         1.00000         1.00000         1.00000    
   9      1.00000         1.00000         1.00000         1.00000         1.00000         1.00000         1.00000         1.00000         1.00000         1.00000    
  10      1.00000         1.00000         1.00000         1.00000         1.00000         1.00000         1.00000         1.00000         1.00000         1.00000    
  11      1.00000         1.00000         1.00000         1.00000         1.00000         1.00000         1.00000         1.00000         1.00000         1.00000    
  12      1.00000         1.00000         1.00000         1.00000         1.00000         1.00000         1.00000         1.00000         1.00000         1.00000    
  13      1.00000         1.00000         1.00000         1.00000         1.00000         1.00000         1.00000         1.00000         1.00000         1.00000    
  14      1.00000         1.00000         1.00000         1.00000         1.00000         1.00000         1.00000         1.00000         1.00000         1.00000    
  15      1.00000         1.00000         1.00000         1.00000         1.00000         1.00000         1.00000         1.00000         1.00000         1.00000    
1
  CONCENTRATION IN LAYER   3 AT END OF TIME STEP  87 IN STRESS PERIOD    2
  ---------------------------------------------------------------------------

                1               2               3               4               5               6               7               8               9              10
 ................................................................................................................................................................
   1      1.00000         1.00000         1.00000         1.00000         1.00000         1.00000         1.00000         1.00000         1.00000         1.00000    
   2      1.00000         1.00000         1.00000         1.00000         1.00000         1.00000         1.00000         1.00000         1.00000         1.00000    
   3      1.00000         1.00000         1.00000         1.00000         1.00000         1.00000         1.00000         1.00000         1.00000         1.00000    
   4      1.00000         1.00000         1.00000         1.00000         1.00000         1.00000         1.00000         1.00000         1.00000         1.00000    
   5      1.00000         1.00000         1.00000         1.00000         1.00000         1.00000         1.00000         1.00000         1.00000         1.00000    
   6      1.00000         1.00000         1.00000         1.00000         1.00000         1.00000         1.00000         1.00000         1.00000         1.00000    
   7      1.00000         1.00000         1.00000         1.00000         1.00000         1.00000         1.00000         1.00000         1.00000         1.00000    
   8      1.00000         1.00000         1.00000         1.00000         1.00000         1.00000         1.00000         1.00000         1.00000         1.00000    
   9      1.00000         1.00000         1.00000         1.00000         1.00000         1.00000         1.00000         1.00000         1.00000         1.00000    
  10      1.00000         1.00000         1.00000         1.00000         1.00000         1.00000         1.00000         1.00000         1.00000         1.00000    
  11      1.00000         1.00000         1.00000         1.00000         1.00000         1.00000         1.00000         1.00000         1.00000         1.00000    
  12      1.00000         1.00000         1.00000         1.00000         1.00000         1.00000         1.00000         1.00000         1.00000         1.00000    
  13      1.00000         1.00000         1.00000         1.00000         1.00000         1.00000         1.00000         1.00000         1.00000         1.00000    
  14      1.00000         1.00000         1.00000         1.00000         1.00000         1.00000         1.00000         1.00000         1.00000         1.00000    
  15      1.00000         1.00000         1.00000         1.00000         1.00000         1.00000         1.00000         1.00000         1.00000         1.00000    

 CONCENTRATION WILL BE SAVED ON UNIT 1030 AT END OF TIME STEP   87, STRESS PERIOD    2


  MASS BUDGET FOR ENTIRE MODEL AT END OF TIME STEP   87, STRESS PERIOD   2
  ---------------------------------------------------------------------------------------------------

     CUMULATIVE MASS      M       RATES FOR THIS TIME STEP      M/T          PACKAGE NAME    
     ------------------                 ------------------------                     ----------------

           IN:                                      IN:
           ---                                      ---
     STORAGE-AQUEOUS =          16.8954       STORAGE-AQUEOUS =           2.0475     MST                              
                 RIV =           0.0000                   RIV =           0.0000     SSM_RIV-1                        
                 CHD =           0.0000                   CHD =           0.0000     SSM_CHD-1                        
                 CNC =           7.0402                   CNC =           0.8526     CNC_0                            

            TOTAL IN =          23.9356              TOTAL IN =           2.9000

          OUT:                                     OUT:
          ----                                     ----
     STORAGE-AQUEOUS =           7.4078       STORAGE-AQUEOUS =           0.8966     MST                              
                 RIV =           0.0000                   RIV =           0.0000     SSM_RIV-1                        
                 CHD =          15.8890                   CHD =           1.9260     SSM_CHD-1                        
                 CNC =           0.6388                   CNC =       7.7431E-02     CNC_0                            

           TOTAL OUT =          23.9356             TOTAL OUT =           2.9000

            IN - OUT =       2.1509E-09              IN - OUT =       1.4698E-09

 PERCENT DISCREPANCY =           0.00     PERCENT DISCREPANCY =           0.00




         TIME SUMMARY AT END OF TIME STEP   87 IN STRESS PERIOD    2
                    SECONDS     MINUTES      HOURS       DAYS        YEARS
                    -----------------------------------------------------------
   TIME STEP LENGTH  7200.0      120.00      2.0000     8.33333E-02 2.28154E-04
 STRESS PERIOD TIME 6.26400E+05  10440.      174.00      7.2500     1.98494E-02
         TOTAL TIME 7.12800E+05  11880.      198.00      8.2500     2.25873E-02


end timestep


start timestep kper="2" kstp="88" mode="normal"

 UBDSV1 SAVING  STORAGE-AQUEOUS ON UNIT   1029 AT TIME STEP     88, STRESS PERIOD      2
 UBDSV1 SAVING     FLOW-JA-FACE ON UNIT   1029 AT TIME STEP     88, STRESS PERIOD      2
 UBDSV06 SAVING  SOURCE-SINK MIX IN MODEL GWT_RIVERBASE    PACKAGE GWT_RIVERBASE   CONNECTED TO MODEL GWT_RIVERBASE    PACKAGE SSM              ON UNIT   1029 AT TIME STEP     88, STRESS PERIOD      2
 UBDSV06 SAVING              CNC IN MODEL GWT_RIVERBASE    PACKAGE GWT_RIVERBASE   CONNECTED TO MODEL GWT_RIVERBASE    PACKAGE CNC_0            ON UNIT   1029 AT TIME STEP     88, STRESS PERIOD      2
1
  CONCENTRATION IN LAYER   1 AT END OF TIME STEP  88 IN STRESS PERIOD    2
  ---------------------------------------------------------------------------

                1               2               3               4               5               6               7               8               9              10
 ................................................................................................................................................................
   1      1.00000         1.00000         1.00000         1.00000         1.00000         1.00000         1.00000         1.00000         1.00000         1.00000    
   2     0.999982         1.00000        0.999982         1.00000         1.00000         1.00000         1.00000         1.00000         1.00000         1.00000    
   3      1.00000        0.999982         1.00000         1.00000         1.00000         1.00000         1.00000         1.00000         1.00000         1.00000    
   4      1.00000         1.00000        0.999981         1.00000         1.00000         1.00000         1.00000         1.00000         1.00000         1.00000    
   5      1.00000         1.00002         1.00000        0.999981        0.999980         1.00000         1.00000         1.00000         1.00000         1.00000    
   6      1.00003         10.0000         1.00000        0.999980         1.00000        0.999979         1.00000         1.00000         1.00000         1.00000    
   7      1.00002         10.0000         1.00000         1.00000         1.00000         1.00000        0.999979         1.00000         1.00000         1.00000    
   8      1.00000         1.00002         1.00000         1.00000         1.00000         1.00000         1.00000        0.999978        0.999977         1.00000    
   9      1.00000         1.00000         1.00000         1.00000         1.00000         1.00000         1.00000        0.999977         1.00000         1.00000    
  10      1.00000         1.00000         1.00000         1.00000         1.00000         1.00000         1.00000         1.00000         1.00000         1.00000    
  11      1.00000         1.00000         1.00000         1.00000         1.00000         1.00000         1.00000         1.00000         1.00000         1.00000    
  12      1.00000         1.00000         1.00000         1.00000         1.00000         1.00000         1.00000         1.00000         1.00000         1.00000    
  13      1.00000         1.00000         1.00000         1.00000         1.00000         1.00000         1.00000         1.00000         1.00000         1.00000    
  14      1.00000         1.00000         1.00000         1.00000         1.00000         1.00000         1.00000         1.00000         1.00000         1.00000    
  15      1.00000         1.00000         1.00000         1.00000         1.00000         1.00000         1.00000         1.00000         1.00000         1.00000    
1
  CONCENTRATION IN LAYER   2 AT END OF TIME STEP  88 IN STRESS PERIOD    2
  ---------------------------------------------------------------------------

                1               2               3               4               5               6               7               8               9              10
 ................................................................................................................................................................
   1      1.00000         1.00000         1.00000         1.00000         1.00000         1.00000         1.00000         1.00000         1.00000         1.00000    
   2      1.00000         1.00000         1.00000         1.00000         1.00000         1.00000         1.00000         1.00000         1.00000         1.00000    
   3      1.00000         1.00000         1.00000         1.00000         1.00000         1.00000         1.00000         1.00000         1.00000         1.00000    
   4      1.00000         1.00000         1.00000         1.00000         1.00000         1.00000         1.00000         1.00000         1.00000         1.00000    
   5      1.00000         1.00000         1.00000         1.00000         1.00000         1.00000         1.00000         1.00000         1.00000         1.00000    
   6      1.00000         1.00001         1.00000         1.00000         1.00000         1.00000         1.00000         1.00000         1.00000         1.00000    
   7      1.00000         1.00000         1.00000         1.00000         1.00000         1.00000         1.00000         1.00000         1.00000         1.00000    
   8      1.00000         1.00000         1.00000         1.00000         1.00000         1.00000         1.00000         1.00000         1.00000         1.00000    
   9      1.00000         1.00000         1.00000         1.00000         1.00000         1.00000         1.00000         1.00000         1.00000         1.00000    
  10      1.00000         1.00000         1.00000         1.00000         1.00000         1.00000         1.00000         1.00000         1.00000         1.00000    
  11      1.00000         1.00000         1.00000         1.00000         1.00000         1.00000         1.00000         1.00000         1.00000         1.00000    
  12      1.00000         1.00000         1.00000         1.00000         1.00000         1.00000         1.00000         1.00000         1.00000         1.00000    
  13      1.00000         1.00000         1.00000         1.00000         1.00000         1.00000         1.00000         1.00000         1.00000         1.00000    
  14      1.00000         1.00000         1.00000         1.00000         1.00000         1.00000         1.00000         1.00000         1.00000         1.00000    
  15      1.00000         1.00000         1.00000         1.00000         1.00000         1.00000         1.00000         1.00000         1.00000         1.00000    
1
  CONCENTRATION IN LAYER   3 AT END OF TIME STEP  88 IN STRESS PERIOD    2
  ---------------------------------------------------------------------------

                1               2               3               4               5               6               7               8               9              10
 ................................................................................................................................................................
   1      1.00000         1.00000         1.00000         1.00000         1.00000         1.00000         1.00000         1.00000         1.00000         1.00000    
   2      1.00000         1.00000         1.00000         1.00000         1.00000         1.00000         1.00000         1.00000         1.00000         1.00000    
   3      1.00000         1.00000         1.00000         1.00000         1.00000         1.00000         1.00000         1.00000         1.00000         1.00000    
   4      1.00000         1.00000         1.00000         1.00000         1.00000         1.00000         1.00000         1.00000         1.00000         1.00000    
   5      1.00000         1.00000         1.00000         1.00000         1.00000         1.00000         1.00000         1.00000         1.00000         1.00000    
   6      1.00000         1.00000         1.00000         1.00000         1.00000         1.00000         1.00000         1.00000         1.00000         1.00000    
   7      1.00000         1.00000         1.00000         1.00000         1.00000         1.00000         1.00000         1.00000         1.00000         1.00000    
   8      1.00000         1.00000         1.00000         1.00000         1.00000         1.00000         1.00000         1.00000         1.00000         1.00000    
   9      1.00000         1.00000         1.00000         1.00000         1.00000         1.00000         1.00000         1.00000         1.00000         1.00000    
  10      1.00000         1.00000         1.00000         1.00000         1.00000         1.00000         1.00000         1.00000         1.00000         1.00000    
  11      1.00000         1.00000         1.00000         1.00000         1.00000         1.00000         1.00000         1.00000         1.00000         1.00000    
  12      1.00000         1.00000         1.00000         1.00000         1.00000         1.00000         1.00000         1.00000         1.00000         1.00000    
  13      1.00000         1.00000         1.00000         1.00000         1.00000         1.00000         1.00000         1.00000         1.00000         1.00000    
  14      1.00000         1.00000         1.00000         1.00000         1.00000         1.00000         1.00000         1.00000         1.00000         1.00000    
  15      1.00000         1.00000         1.00000         1.00000         1.00000         1.00000         1.00000         1.00000         1.00000         1.00000    

 CONCENTRATION WILL BE SAVED ON UNIT 1030 AT END OF TIME STEP   88, STRESS PERIOD    2


  MASS BUDGET FOR ENTIRE MODEL AT END OF TIME STEP   88, STRESS PERIOD   2
  ---------------------------------------------------------------------------------------------------

     CUMULATIVE MASS      M       RATES FOR THIS TIME STEP      M/T          PACKAGE NAME    
     ------------------                 ------------------------                     ----------------

           IN:                                      IN:
           ---                                      ---
     STORAGE-AQUEOUS =          17.0661       STORAGE-AQUEOUS =           2.0475     MST                              
                 RIV =           0.0000                   RIV =           0.0000     SSM_RIV-1                        
                 CHD =           0.0000                   CHD =           0.0000     SSM_CHD-1                        
                 CNC =           7.1113                   CNC =           0.8526     CNC_0                            

            TOTAL IN =          24.1773              TOTAL IN =           2.9000

          OUT:                                     OUT:
          ----                                     ----
     STORAGE-AQUEOUS =           7.4825       STORAGE-AQUEOUS =           0.8966     MST                              
                 RIV =           0.0000                   RIV =           0.0000     SSM_RIV-1                        
                 CHD =          16.0495                   CHD =           1.9260     SSM_CHD-1                        
                 CNC =           0.6453                   CNC =       7.7431E-02     CNC_0                            

           TOTAL OUT =          24.1773             TOTAL OUT =           2.9000

            IN - OUT =       2.1805E-09              IN - OUT =       3.5562E-10

 PERCENT DISCREPANCY =           0.00     PERCENT DISCREPANCY =           0.00




         TIME SUMMARY AT END OF TIME STEP   88 IN STRESS PERIOD    2
                    SECONDS     MINUTES      HOURS       DAYS        YEARS
                    -----------------------------------------------------------
   TIME STEP LENGTH  7200.0      120.00      2.0000     8.33333E-02 2.28154E-04
 STRESS PERIOD TIME 6.33600E+05  10560.      176.00      7.3333     2.00776E-02
         TOTAL TIME 7.20000E+05  12000.      200.00      8.3333     2.28154E-02


end timestep


start timestep kper="2" kstp="89" mode="normal"

 UBDSV1 SAVING  STORAGE-AQUEOUS ON UNIT   1029 AT TIME STEP     89, STRESS PERIOD      2
 UBDSV1 SAVING     FLOW-JA-FACE ON UNIT   1029 AT TIME STEP     89, STRESS PERIOD      2
 UBDSV06 SAVING  SOURCE-SINK MIX IN MODEL GWT_RIVERBASE    PACKAGE GWT_RIVERBASE   CONNECTED TO MODEL GWT_RIVERBASE    PACKAGE SSM              ON UNIT   1029 AT TIME STEP     89, STRESS PERIOD      2
 UBDSV06 SAVING              CNC IN MODEL GWT_RIVERBASE    PACKAGE GWT_RIVERBASE   CONNECTED TO MODEL GWT_RIVERBASE    PACKAGE CNC_0            ON UNIT   1029 AT TIME STEP     89, STRESS PERIOD      2
1
  CONCENTRATION IN LAYER   1 AT END OF TIME STEP  89 IN STRESS PERIOD    2
  ---------------------------------------------------------------------------

                1               2               3               4               5               6               7               8               9              10
 ................................................................................................................................................................
   1      1.00000         1.00000         1.00000         1.00000         1.00000         1.00000         1.00000         1.00000         1.00000         1.00000    
   2     0.999982         1.00000        0.999982         1.00000         1.00000         1.00000         1.00000         1.00000         1.00000         1.00000    
   3      1.00000        0.999981         1.00000         1.00000         1.00000         1.00000         1.00000         1.00000         1.00000         1.00000    
   4      1.00000         1.00000        0.999981         1.00000         1.00000         1.00000         1.00000         1.00000         1.00000         1.00000    
   5      1.00000         1.00002         1.00000        0.999980        0.999979         1.00000         1.00000         1.00000         1.00000         1.00000    
   6      1.00003         10.0000         1.00000        0.999980         1.00000        0.999979         1.00000         1.00000         1.00000         1.00000    
   7      1.00002         10.0000         1.00000         1.00000         1.00000         1.00000        0.999978         1.00000         1.00000         1.00000    
   8      1.00000         1.00002         1.00000         1.00000         1.00000         1.00000         1.00000        0.999978        0.999977         1.00000    
   9      1.00000         1.00000         1.00000         1.00000         1.00000         1.00000         1.00000        0.999977         1.00000         1.00000    
  10      1.00000         1.00000         1.00000         1.00000         1.00000         1.00000         1.00000         1.00000         1.00000         1.00000    
  11      1.00000         1.00000         1.00000         1.00000         1.00000         1.00000         1.00000         1.00000         1.00000         1.00000    
  12      1.00000         1.00000         1.00000         1.00000         1.00000         1.00000         1.00000         1.00000         1.00000         1.00000    
  13      1.00000         1.00000         1.00000         1.00000         1.00000         1.00000         1.00000         1.00000         1.00000         1.00000    
  14      1.00000         1.00000         1.00000         1.00000         1.00000         1.00000         1.00000         1.00000         1.00000         1.00000    
  15      1.00000         1.00000         1.00000         1.00000         1.00000         1.00000         1.00000         1.00000         1.00000         1.00000    
1
  CONCENTRATION IN LAYER   2 AT END OF TIME STEP  89 IN STRESS PERIOD    2
  ---------------------------------------------------------------------------

                1               2               3               4               5               6               7               8               9              10
 ................................................................................................................................................................
   1      1.00000         1.00000         1.00000         1.00000         1.00000         1.00000         1.00000         1.00000         1.00000         1.00000    
   2      1.00000         1.00000         1.00000         1.00000         1.00000         1.00000         1.00000         1.00000         1.00000         1.00000    
   3      1.00000         1.00000         1.00000         1.00000         1.00000         1.00000         1.00000         1.00000         1.00000         1.00000    
   4      1.00000         1.00000         1.00000         1.00000         1.00000         1.00000         1.00000         1.00000         1.00000         1.00000    
   5      1.00000         1.00000         1.00000         1.00000         1.00000         1.00000         1.00000         1.00000         1.00000         1.00000    
   6      1.00000         1.00001         1.00000         1.00000         1.00000         1.00000         1.00000         1.00000         1.00000         1.00000    
   7      1.00000         1.00000         1.00000         1.00000         1.00000         1.00000         1.00000         1.00000         1.00000         1.00000    
   8      1.00000         1.00000         1.00000         1.00000         1.00000         1.00000         1.00000         1.00000         1.00000         1.00000    
   9      1.00000         1.00000         1.00000         1.00000         1.00000         1.00000         1.00000         1.00000         1.00000         1.00000    
  10      1.00000         1.00000         1.00000         1.00000         1.00000         1.00000         1.00000         1.00000         1.00000         1.00000    
  11      1.00000         1.00000         1.00000         1.00000         1.00000         1.00000         1.00000         1.00000         1.00000         1.00000    
  12      1.00000         1.00000         1.00000         1.00000         1.00000         1.00000         1.00000         1.00000         1.00000         1.00000    
  13      1.00000         1.00000         1.00000         1.00000         1.00000         1.00000         1.00000         1.00000         1.00000         1.00000    
  14      1.00000         1.00000         1.00000         1.00000         1.00000         1.00000         1.00000         1.00000         1.00000         1.00000    
  15      1.00000         1.00000         1.00000         1.00000         1.00000         1.00000         1.00000         1.00000         1.00000         1.00000    
1
  CONCENTRATION IN LAYER   3 AT END OF TIME STEP  89 IN STRESS PERIOD    2
  ---------------------------------------------------------------------------

                1               2               3               4               5               6               7               8               9              10
 ................................................................................................................................................................
   1      1.00000         1.00000         1.00000         1.00000         1.00000         1.00000         1.00000         1.00000         1.00000         1.00000    
   2      1.00000         1.00000         1.00000         1.00000         1.00000         1.00000         1.00000         1.00000         1.00000         1.00000    
   3      1.00000         1.00000         1.00000         1.00000         1.00000         1.00000         1.00000         1.00000         1.00000         1.00000    
   4      1.00000         1.00000         1.00000         1.00000         1.00000         1.00000         1.00000         1.00000         1.00000         1.00000    
   5      1.00000         1.00000         1.00000         1.00000         1.00000         1.00000         1.00000         1.00000         1.00000         1.00000    
   6      1.00000         1.00000         1.00000         1.00000         1.00000         1.00000         1.00000         1.00000         1.00000         1.00000    
   7      1.00000         1.00000         1.00000         1.00000         1.00000         1.00000         1.00000         1.00000         1.00000         1.00000    
   8      1.00000         1.00000         1.00000         1.00000         1.00000         1.00000         1.00000         1.00000         1.00000         1.00000    
   9      1.00000         1.00000         1.00000         1.00000         1.00000         1.00000         1.00000         1.00000         1.00000         1.00000    
  10      1.00000         1.00000         1.00000         1.00000         1.00000         1.00000         1.00000         1.00000         1.00000         1.00000    
  11      1.00000         1.00000         1.00000         1.00000         1.00000         1.00000         1.00000         1.00000         1.00000         1.00000    
  12      1.00000         1.00000         1.00000         1.00000         1.00000         1.00000         1.00000         1.00000         1.00000         1.00000    
  13      1.00000         1.00000         1.00000         1.00000         1.00000         1.00000         1.00000         1.00000         1.00000         1.00000    
  14      1.00000         1.00000         1.00000         1.00000         1.00000         1.00000         1.00000         1.00000         1.00000         1.00000    
  15      1.00000         1.00000         1.00000         1.00000         1.00000         1.00000         1.00000         1.00000         1.00000         1.00000    

 CONCENTRATION WILL BE SAVED ON UNIT 1030 AT END OF TIME STEP   89, STRESS PERIOD    2


  MASS BUDGET FOR ENTIRE MODEL AT END OF TIME STEP   89, STRESS PERIOD   2
  ---------------------------------------------------------------------------------------------------

     CUMULATIVE MASS      M       RATES FOR THIS TIME STEP      M/T          PACKAGE NAME    
     ------------------                 ------------------------                     ----------------

           IN:                                      IN:
           ---                                      ---
     STORAGE-AQUEOUS =          17.2367       STORAGE-AQUEOUS =           2.0475     MST                              
                 RIV =           0.0000                   RIV =           0.0000     SSM_RIV-1                        
                 CHD =           0.0000                   CHD =           0.0000     SSM_CHD-1                        
                 CNC =           7.1823                   CNC =           0.8526     CNC_0                            

            TOTAL IN =          24.4190              TOTAL IN =           2.9000

          OUT:                                     OUT:
          ----                                     ----
     STORAGE-AQUEOUS =           7.5572       STORAGE-AQUEOUS =           0.8966     MST                              
                 RIV =           0.0000                   RIV =           0.0000     SSM_RIV-1                        
                 CHD =          16.2100                   CHD =           1.9260     SSM_CHD-1                        
                 CNC =           0.6517                   CNC =       7.7430E-02     CNC_0                            

           TOTAL OUT =          24.4190             TOTAL OUT =           2.9000

            IN - OUT =       2.2534E-09              IN - OUT =       8.7469E-10

 PERCENT DISCREPANCY =           0.00     PERCENT DISCREPANCY =           0.00




         TIME SUMMARY AT END OF TIME STEP   89 IN STRESS PERIOD    2
                    SECONDS     MINUTES      HOURS       DAYS        YEARS
                    -----------------------------------------------------------
   TIME STEP LENGTH  7200.0      120.00      2.0000     8.33333E-02 2.28154E-04
 STRESS PERIOD TIME 6.40800E+05  10680.      178.00      7.4167     2.03057E-02
         TOTAL TIME 7.27200E+05  12120.      202.00      8.4167     2.30436E-02


end timestep


start timestep kper="2" kstp="90" mode="normal"

 UBDSV1 SAVING  STORAGE-AQUEOUS ON UNIT   1029 AT TIME STEP     90, STRESS PERIOD      2
 UBDSV1 SAVING     FLOW-JA-FACE ON UNIT   1029 AT TIME STEP     90, STRESS PERIOD      2
 UBDSV06 SAVING  SOURCE-SINK MIX IN MODEL GWT_RIVERBASE    PACKAGE GWT_RIVERBASE   CONNECTED TO MODEL GWT_RIVERBASE    PACKAGE SSM              ON UNIT   1029 AT TIME STEP     90, STRESS PERIOD      2
 UBDSV06 SAVING              CNC IN MODEL GWT_RIVERBASE    PACKAGE GWT_RIVERBASE   CONNECTED TO MODEL GWT_RIVERBASE    PACKAGE CNC_0            ON UNIT   1029 AT TIME STEP     90, STRESS PERIOD      2
1
  CONCENTRATION IN LAYER   1 AT END OF TIME STEP  90 IN STRESS PERIOD    2
  ---------------------------------------------------------------------------

                1               2               3               4               5               6               7               8               9              10
 ................................................................................................................................................................
   1      1.00000         1.00000         1.00000         1.00000         1.00000         1.00000         1.00000         1.00000         1.00000         1.00000    
   2     0.999982         1.00000        0.999982         1.00000         1.00000         1.00000         1.00000         1.00000         1.00000         1.00000    
   3      1.00000        0.999981         1.00000         1.00000         1.00000         1.00000         1.00000         1.00000         1.00000         1.00000    
   4      1.00000         1.00000        0.999981         1.00000         1.00000         1.00000         1.00000         1.00000         1.00000         1.00000    
   5      1.00000         1.00002         1.00000        0.999980        0.999979         1.00000         1.00000         1.00000         1.00000         1.00000    
   6      1.00003         10.0000         1.00000        0.999980         1.00000        0.999979         1.00000         1.00000         1.00000         1.00000    
   7      1.00002         10.0000         1.00000         1.00000         1.00000         1.00000        0.999978         1.00000         1.00000         1.00000    
   8      1.00000         1.00002         1.00000         1.00000         1.00000         1.00000         1.00000        0.999978        0.999976         1.00000    
   9      1.00000         1.00000         1.00000         1.00000         1.00000         1.00000         1.00000        0.999977         1.00000         1.00000    
  10      1.00000         1.00000         1.00000         1.00000         1.00000         1.00000         1.00000         1.00000         1.00000         1.00000    
  11      1.00000         1.00000         1.00000         1.00000         1.00000         1.00000         1.00000         1.00000         1.00000         1.00000    
  12      1.00000         1.00000         1.00000         1.00000         1.00000         1.00000         1.00000         1.00000         1.00000         1.00000    
  13      1.00000         1.00000         1.00000         1.00000         1.00000         1.00000         1.00000         1.00000         1.00000         1.00000    
  14      1.00000         1.00000         1.00000         1.00000         1.00000         1.00000         1.00000         1.00000         1.00000         1.00000    
  15      1.00000         1.00000         1.00000         1.00000         1.00000         1.00000         1.00000         1.00000         1.00000         1.00000    
1
  CONCENTRATION IN LAYER   2 AT END OF TIME STEP  90 IN STRESS PERIOD    2
  ---------------------------------------------------------------------------

                1               2               3               4               5               6               7               8               9              10
 ................................................................................................................................................................
   1      1.00000         1.00000         1.00000         1.00000         1.00000         1.00000         1.00000         1.00000         1.00000         1.00000    
   2      1.00000         1.00000         1.00000         1.00000         1.00000         1.00000         1.00000         1.00000         1.00000         1.00000    
   3      1.00000         1.00000         1.00000         1.00000         1.00000         1.00000         1.00000         1.00000         1.00000         1.00000    
   4      1.00000         1.00000         1.00000         1.00000         1.00000         1.00000         1.00000         1.00000         1.00000         1.00000    
   5      1.00000         1.00000         1.00000         1.00000         1.00000         1.00000         1.00000         1.00000         1.00000         1.00000    
   6      1.00000         1.00001         1.00000         1.00000         1.00000         1.00000         1.00000         1.00000         1.00000         1.00000    
   7      1.00000         1.00000         1.00000         1.00000         1.00000         1.00000         1.00000         1.00000         1.00000         1.00000    
   8      1.00000         1.00000         1.00000         1.00000         1.00000         1.00000         1.00000         1.00000         1.00000         1.00000    
   9      1.00000         1.00000         1.00000         1.00000         1.00000         1.00000         1.00000         1.00000         1.00000         1.00000    
  10      1.00000         1.00000         1.00000         1.00000         1.00000         1.00000         1.00000         1.00000         1.00000         1.00000    
  11      1.00000         1.00000         1.00000         1.00000         1.00000         1.00000         1.00000         1.00000         1.00000         1.00000    
  12      1.00000         1.00000         1.00000         1.00000         1.00000         1.00000         1.00000         1.00000         1.00000         1.00000    
  13      1.00000         1.00000         1.00000         1.00000         1.00000         1.00000         1.00000         1.00000         1.00000         1.00000    
  14      1.00000         1.00000         1.00000         1.00000         1.00000         1.00000         1.00000         1.00000         1.00000         1.00000    
  15      1.00000         1.00000         1.00000         1.00000         1.00000         1.00000         1.00000         1.00000         1.00000         1.00000    
1
  CONCENTRATION IN LAYER   3 AT END OF TIME STEP  90 IN STRESS PERIOD    2
  ---------------------------------------------------------------------------

                1               2               3               4               5               6               7               8               9              10
 ................................................................................................................................................................
   1      1.00000         1.00000         1.00000         1.00000         1.00000         1.00000         1.00000         1.00000         1.00000         1.00000    
   2      1.00000         1.00000         1.00000         1.00000         1.00000         1.00000         1.00000         1.00000         1.00000         1.00000    
   3      1.00000         1.00000         1.00000         1.00000         1.00000         1.00000         1.00000         1.00000         1.00000         1.00000    
   4      1.00000         1.00000         1.00000         1.00000         1.00000         1.00000         1.00000         1.00000         1.00000         1.00000    
   5      1.00000         1.00000         1.00000         1.00000         1.00000         1.00000         1.00000         1.00000         1.00000         1.00000    
   6      1.00000         1.00000         1.00000         1.00000         1.00000         1.00000         1.00000         1.00000         1.00000         1.00000    
   7      1.00000         1.00000         1.00000         1.00000         1.00000         1.00000         1.00000         1.00000         1.00000         1.00000    
   8      1.00000         1.00000         1.00000         1.00000         1.00000         1.00000         1.00000         1.00000         1.00000         1.00000    
   9      1.00000         1.00000         1.00000         1.00000         1.00000         1.00000         1.00000         1.00000         1.00000         1.00000    
  10      1.00000         1.00000         1.00000         1.00000         1.00000         1.00000         1.00000         1.00000         1.00000         1.00000    
  11      1.00000         1.00000         1.00000         1.00000         1.00000         1.00000         1.00000         1.00000         1.00000         1.00000    
  12      1.00000         1.00000         1.00000         1.00000         1.00000         1.00000         1.00000         1.00000         1.00000         1.00000    
  13      1.00000         1.00000         1.00000         1.00000         1.00000         1.00000         1.00000         1.00000         1.00000         1.00000    
  14      1.00000         1.00000         1.00000         1.00000         1.00000         1.00000         1.00000         1.00000         1.00000         1.00000    
  15      1.00000         1.00000         1.00000         1.00000         1.00000         1.00000         1.00000         1.00000         1.00000         1.00000    

 CONCENTRATION WILL BE SAVED ON UNIT 1030 AT END OF TIME STEP   90, STRESS PERIOD    2


  MASS BUDGET FOR ENTIRE MODEL AT END OF TIME STEP   90, STRESS PERIOD   2
  ---------------------------------------------------------------------------------------------------

     CUMULATIVE MASS      M       RATES FOR THIS TIME STEP      M/T          PACKAGE NAME    
     ------------------                 ------------------------                     ----------------

           IN:                                      IN:
           ---                                      ---
     STORAGE-AQUEOUS =          17.4073       STORAGE-AQUEOUS =           2.0475     MST                              
                 RIV =           0.0000                   RIV =           0.0000     SSM_RIV-1                        
                 CHD =           0.0000                   CHD =           0.0000     SSM_CHD-1                        
                 CNC =           7.2533                   CNC =           0.8526     CNC_0                            

            TOTAL IN =          24.6606              TOTAL IN =           2.9000

          OUT:                                     OUT:
          ----                                     ----
     STORAGE-AQUEOUS =           7.6320       STORAGE-AQUEOUS =           0.8966     MST                              
                 RIV =           0.0000                   RIV =           0.0000     SSM_RIV-1                        
                 CHD =          16.3705                   CHD =           1.9260     SSM_CHD-1                        
                 CNC =           0.6582                   CNC =       7.7430E-02     CNC_0                            

           TOTAL OUT =          24.6606             TOTAL OUT =           2.9000

            IN - OUT =       2.1884E-09              IN - OUT =      -7.8011E-10

 PERCENT DISCREPANCY =           0.00     PERCENT DISCREPANCY =          -0.00




         TIME SUMMARY AT END OF TIME STEP   90 IN STRESS PERIOD    2
                    SECONDS     MINUTES      HOURS       DAYS        YEARS
                    -----------------------------------------------------------
   TIME STEP LENGTH  7200.0      120.00      2.0000     8.33333E-02 2.28154E-04
 STRESS PERIOD TIME 6.48000E+05  10800.      180.00      7.5000     2.05339E-02
         TOTAL TIME 7.34400E+05  12240.      204.00      8.5000     2.32717E-02


end timestep


start timestep kper="2" kstp="91" mode="normal"

 UBDSV1 SAVING  STORAGE-AQUEOUS ON UNIT   1029 AT TIME STEP     91, STRESS PERIOD      2
 UBDSV1 SAVING     FLOW-JA-FACE ON UNIT   1029 AT TIME STEP     91, STRESS PERIOD      2
 UBDSV06 SAVING  SOURCE-SINK MIX IN MODEL GWT_RIVERBASE    PACKAGE GWT_RIVERBASE   CONNECTED TO MODEL GWT_RIVERBASE    PACKAGE SSM              ON UNIT   1029 AT TIME STEP     91, STRESS PERIOD      2
 UBDSV06 SAVING              CNC IN MODEL GWT_RIVERBASE    PACKAGE GWT_RIVERBASE   CONNECTED TO MODEL GWT_RIVERBASE    PACKAGE CNC_0            ON UNIT   1029 AT TIME STEP     91, STRESS PERIOD      2
1
  CONCENTRATION IN LAYER   1 AT END OF TIME STEP  91 IN STRESS PERIOD    2
  ---------------------------------------------------------------------------

                1               2               3               4               5               6               7               8               9              10
 ................................................................................................................................................................
   1      1.00000         1.00000         1.00000         1.00000         1.00000         1.00000         1.00000         1.00000         1.00000         1.00000    
   2     0.999982         1.00000        0.999982         1.00000         1.00000         1.00000         1.00000         1.00000         1.00000         1.00000    
   3      1.00000        0.999981         1.00000         1.00000         1.00000         1.00000         1.00000         1.00000         1.00000         1.00000    
   4      1.00000         1.00000        0.999981         1.00000         1.00000         1.00000         1.00000         1.00000         1.00000         1.00000    
   5      1.00000         1.00002         1.00000        0.999980        0.999979         1.00000         1.00000         1.00000         1.00000         1.00000    
   6      1.00003         10.0000         1.00000        0.999980         1.00000        0.999978         1.00000         1.00000         1.00000         1.00000    
   7      1.00002         10.0000         1.00000         1.00000         1.00000         1.00000        0.999978         1.00000         1.00000         1.00000    
   8      1.00000         1.00002         1.00000         1.00000         1.00000         1.00000         1.00000        0.999977        0.999976         1.00000    
   9      1.00000         1.00000         1.00000         1.00000         1.00000         1.00000         1.00000        0.999977         1.00000         1.00000    
  10      1.00000         1.00000         1.00000         1.00000         1.00000         1.00000         1.00000         1.00000         1.00000         1.00000    
  11      1.00000         1.00000         1.00000         1.00000         1.00000         1.00000         1.00000         1.00000         1.00000         1.00000    
  12      1.00000         1.00000         1.00000         1.00000         1.00000         1.00000         1.00000         1.00000         1.00000         1.00000    
  13      1.00000         1.00000         1.00000         1.00000         1.00000         1.00000         1.00000         1.00000         1.00000         1.00000    
  14      1.00000         1.00000         1.00000         1.00000         1.00000         1.00000         1.00000         1.00000         1.00000         1.00000    
  15      1.00000         1.00000         1.00000         1.00000         1.00000         1.00000         1.00000         1.00000         1.00000         1.00000    
1
  CONCENTRATION IN LAYER   2 AT END OF TIME STEP  91 IN STRESS PERIOD    2
  ---------------------------------------------------------------------------

                1               2               3               4               5               6               7               8               9              10
 ................................................................................................................................................................
   1      1.00000         1.00000         1.00000         1.00000         1.00000         1.00000         1.00000         1.00000         1.00000         1.00000    
   2      1.00000         1.00000         1.00000         1.00000         1.00000         1.00000         1.00000         1.00000         1.00000         1.00000    
   3      1.00000         1.00000         1.00000         1.00000         1.00000         1.00000         1.00000         1.00000         1.00000         1.00000    
   4      1.00000         1.00000         1.00000         1.00000         1.00000         1.00000         1.00000         1.00000         1.00000         1.00000    
   5      1.00000         1.00000         1.00000         1.00000         1.00000         1.00000         1.00000         1.00000         1.00000         1.00000    
   6      1.00000         1.00001         1.00000         1.00000         1.00000         1.00000         1.00000         1.00000         1.00000         1.00000    
   7      1.00000         1.00000         1.00000         1.00000         1.00000         1.00000         1.00000         1.00000         1.00000         1.00000    
   8      1.00000         1.00000         1.00000         1.00000         1.00000         1.00000         1.00000         1.00000         1.00000         1.00000    
   9      1.00000         1.00000         1.00000         1.00000         1.00000         1.00000         1.00000         1.00000         1.00000         1.00000    
  10      1.00000         1.00000         1.00000         1.00000         1.00000         1.00000         1.00000         1.00000         1.00000         1.00000    
  11      1.00000         1.00000         1.00000         1.00000         1.00000         1.00000         1.00000         1.00000         1.00000         1.00000    
  12      1.00000         1.00000         1.00000         1.00000         1.00000         1.00000         1.00000         1.00000         1.00000         1.00000    
  13      1.00000         1.00000         1.00000         1.00000         1.00000         1.00000         1.00000         1.00000         1.00000         1.00000    
  14      1.00000         1.00000         1.00000         1.00000         1.00000         1.00000         1.00000         1.00000         1.00000         1.00000    
  15      1.00000         1.00000         1.00000         1.00000         1.00000         1.00000         1.00000         1.00000         1.00000         1.00000    
1
  CONCENTRATION IN LAYER   3 AT END OF TIME STEP  91 IN STRESS PERIOD    2
  ---------------------------------------------------------------------------

                1               2               3               4               5               6               7               8               9              10
 ................................................................................................................................................................
   1      1.00000         1.00000         1.00000         1.00000         1.00000         1.00000         1.00000         1.00000         1.00000         1.00000    
   2      1.00000         1.00000         1.00000         1.00000         1.00000         1.00000         1.00000         1.00000         1.00000         1.00000    
   3      1.00000         1.00000         1.00000         1.00000         1.00000         1.00000         1.00000         1.00000         1.00000         1.00000    
   4      1.00000         1.00000         1.00000         1.00000         1.00000         1.00000         1.00000         1.00000         1.00000         1.00000    
   5      1.00000         1.00000         1.00000         1.00000         1.00000         1.00000         1.00000         1.00000         1.00000         1.00000    
   6      1.00000         1.00000         1.00000         1.00000         1.00000         1.00000         1.00000         1.00000         1.00000         1.00000    
   7      1.00000         1.00000         1.00000         1.00000         1.00000         1.00000         1.00000         1.00000         1.00000         1.00000    
   8      1.00000         1.00000         1.00000         1.00000         1.00000         1.00000         1.00000         1.00000         1.00000         1.00000    
   9      1.00000         1.00000         1.00000         1.00000         1.00000         1.00000         1.00000         1.00000         1.00000         1.00000    
  10      1.00000         1.00000         1.00000         1.00000         1.00000         1.00000         1.00000         1.00000         1.00000         1.00000    
  11      1.00000         1.00000         1.00000         1.00000         1.00000         1.00000         1.00000         1.00000         1.00000         1.00000    
  12      1.00000         1.00000         1.00000         1.00000         1.00000         1.00000         1.00000         1.00000         1.00000         1.00000    
  13      1.00000         1.00000         1.00000         1.00000         1.00000         1.00000         1.00000         1.00000         1.00000         1.00000    
  14      1.00000         1.00000         1.00000         1.00000         1.00000         1.00000         1.00000         1.00000         1.00000         1.00000    
  15      1.00000         1.00000         1.00000         1.00000         1.00000         1.00000         1.00000         1.00000         1.00000         1.00000    

 CONCENTRATION WILL BE SAVED ON UNIT 1030 AT END OF TIME STEP   91, STRESS PERIOD    2


  MASS BUDGET FOR ENTIRE MODEL AT END OF TIME STEP   91, STRESS PERIOD   2
  ---------------------------------------------------------------------------------------------------

     CUMULATIVE MASS      M       RATES FOR THIS TIME STEP      M/T          PACKAGE NAME    
     ------------------                 ------------------------                     ----------------

           IN:                                      IN:
           ---                                      ---
     STORAGE-AQUEOUS =          17.5779       STORAGE-AQUEOUS =           2.0475     MST                              
                 RIV =           0.0000                   RIV =           0.0000     SSM_RIV-1                        
                 CHD =           0.0000                   CHD =           0.0000     SSM_CHD-1                        
                 CNC =           7.3244                   CNC =           0.8526     CNC_0                            

            TOTAL IN =          24.9023              TOTAL IN =           2.9000

          OUT:                                     OUT:
          ----                                     ----
     STORAGE-AQUEOUS =           7.7067       STORAGE-AQUEOUS =           0.8966     MST                              
                 RIV =           0.0000                   RIV =           0.0000     SSM_RIV-1                        
                 CHD =          16.5310                   CHD =           1.9260     SSM_CHD-1                        
                 CNC =           0.6647                   CNC =       7.7430E-02     CNC_0                            

           TOTAL OUT =          24.9023             TOTAL OUT =           2.9000

            IN - OUT =       2.4058E-09              IN - OUT =       2.6092E-09

 PERCENT DISCREPANCY =           0.00     PERCENT DISCREPANCY =           0.00




         TIME SUMMARY AT END OF TIME STEP   91 IN STRESS PERIOD    2
                    SECONDS     MINUTES      HOURS       DAYS        YEARS
                    -----------------------------------------------------------
   TIME STEP LENGTH  7200.0      120.00      2.0000     8.33333E-02 2.28154E-04
 STRESS PERIOD TIME 6.55200E+05  10920.      182.00      7.5833     2.07620E-02
         TOTAL TIME 7.41600E+05  12360.      206.00      8.5833     2.34999E-02


end timestep


start timestep kper="2" kstp="92" mode="normal"

 UBDSV1 SAVING  STORAGE-AQUEOUS ON UNIT   1029 AT TIME STEP     92, STRESS PERIOD      2
 UBDSV1 SAVING     FLOW-JA-FACE ON UNIT   1029 AT TIME STEP     92, STRESS PERIOD      2
 UBDSV06 SAVING  SOURCE-SINK MIX IN MODEL GWT_RIVERBASE    PACKAGE GWT_RIVERBASE   CONNECTED TO MODEL GWT_RIVERBASE    PACKAGE SSM              ON UNIT   1029 AT TIME STEP     92, STRESS PERIOD      2
 UBDSV06 SAVING              CNC IN MODEL GWT_RIVERBASE    PACKAGE GWT_RIVERBASE   CONNECTED TO MODEL GWT_RIVERBASE    PACKAGE CNC_0            ON UNIT   1029 AT TIME STEP     92, STRESS PERIOD      2
1
  CONCENTRATION IN LAYER   1 AT END OF TIME STEP  92 IN STRESS PERIOD    2
  ---------------------------------------------------------------------------

                1               2               3               4               5               6               7               8               9              10
 ................................................................................................................................................................
   1      1.00000         1.00000         1.00000         1.00000         1.00000         1.00000         1.00000         1.00000         1.00000         1.00000    
   2     0.999982         1.00000        0.999981         1.00000         1.00000         1.00000         1.00000         1.00000         1.00000         1.00000    
   3      1.00000        0.999981         1.00000         1.00000         1.00000         1.00000         1.00000         1.00000         1.00000         1.00000    
   4      1.00000         1.00000        0.999980         1.00000         1.00000         1.00000         1.00000         1.00000         1.00000         1.00000    
   5      1.00000         1.00002         1.00000        0.999980        0.999979         1.00000         1.00000         1.00000         1.00000         1.00000    
   6      1.00003         10.0000         1.00000        0.999979         1.00000        0.999978         1.00000         1.00000         1.00000         1.00000    
   7      1.00002         10.0000         1.00000         1.00000         1.00000         1.00000        0.999978         1.00000         1.00000         1.00000    
   8      1.00000         1.00002         1.00000         1.00000         1.00000         1.00000         1.00000        0.999977        0.999976         1.00000    
   9      1.00000         1.00000         1.00000         1.00000         1.00000         1.00000         1.00000        0.999977         1.00000         1.00000    
  10      1.00000         1.00000         1.00000         1.00000         1.00000         1.00000         1.00000         1.00000         1.00000         1.00000    
  11      1.00000         1.00000         1.00000         1.00000         1.00000         1.00000         1.00000         1.00000         1.00000         1.00000    
  12      1.00000         1.00000         1.00000         1.00000         1.00000         1.00000         1.00000         1.00000         1.00000         1.00000    
  13      1.00000         1.00000         1.00000         1.00000         1.00000         1.00000         1.00000         1.00000         1.00000         1.00000    
  14      1.00000         1.00000         1.00000         1.00000         1.00000         1.00000         1.00000         1.00000         1.00000         1.00000    
  15      1.00000         1.00000         1.00000         1.00000         1.00000         1.00000         1.00000         1.00000         1.00000         1.00000    
1
  CONCENTRATION IN LAYER   2 AT END OF TIME STEP  92 IN STRESS PERIOD    2
  ---------------------------------------------------------------------------

                1               2               3               4               5               6               7               8               9              10
 ................................................................................................................................................................
   1      1.00000         1.00000         1.00000         1.00000         1.00000         1.00000         1.00000         1.00000         1.00000         1.00000    
   2      1.00000         1.00000         1.00000         1.00000         1.00000         1.00000         1.00000         1.00000         1.00000         1.00000    
   3      1.00000         1.00000         1.00000         1.00000         1.00000         1.00000         1.00000         1.00000         1.00000         1.00000    
   4      1.00000         1.00000         1.00000         1.00000         1.00000         1.00000         1.00000         1.00000         1.00000         1.00000    
   5      1.00000         1.00000         1.00000         1.00000         1.00000         1.00000         1.00000         1.00000         1.00000         1.00000    
   6      1.00000         1.00001         1.00000         1.00000         1.00000         1.00000         1.00000         1.00000         1.00000         1.00000    
   7      1.00000         1.00000         1.00000         1.00000         1.00000         1.00000         1.00000         1.00000         1.00000         1.00000    
   8      1.00000         1.00000         1.00000         1.00000         1.00000         1.00000         1.00000         1.00000         1.00000         1.00000    
   9      1.00000         1.00000         1.00000         1.00000         1.00000         1.00000         1.00000         1.00000         1.00000         1.00000    
  10      1.00000         1.00000         1.00000         1.00000         1.00000         1.00000         1.00000         1.00000         1.00000         1.00000    
  11      1.00000         1.00000         1.00000         1.00000         1.00000         1.00000         1.00000         1.00000         1.00000         1.00000    
  12      1.00000         1.00000         1.00000         1.00000         1.00000         1.00000         1.00000         1.00000         1.00000         1.00000    
  13      1.00000         1.00000         1.00000         1.00000         1.00000         1.00000         1.00000         1.00000         1.00000         1.00000    
  14      1.00000         1.00000         1.00000         1.00000         1.00000         1.00000         1.00000         1.00000         1.00000         1.00000    
  15      1.00000         1.00000         1.00000         1.00000         1.00000         1.00000         1.00000         1.00000         1.00000         1.00000    
1
  CONCENTRATION IN LAYER   3 AT END OF TIME STEP  92 IN STRESS PERIOD    2
  ---------------------------------------------------------------------------

                1               2               3               4               5               6               7               8               9              10
 ................................................................................................................................................................
   1      1.00000         1.00000         1.00000         1.00000         1.00000         1.00000         1.00000         1.00000         1.00000         1.00000    
   2      1.00000         1.00000         1.00000         1.00000         1.00000         1.00000         1.00000         1.00000         1.00000         1.00000    
   3      1.00000         1.00000         1.00000         1.00000         1.00000         1.00000         1.00000         1.00000         1.00000         1.00000    
   4      1.00000         1.00000         1.00000         1.00000         1.00000         1.00000         1.00000         1.00000         1.00000         1.00000    
   5      1.00000         1.00000         1.00000         1.00000         1.00000         1.00000         1.00000         1.00000         1.00000         1.00000    
   6      1.00000         1.00000         1.00000         1.00000         1.00000         1.00000         1.00000         1.00000         1.00000         1.00000    
   7      1.00000         1.00000         1.00000         1.00000         1.00000         1.00000         1.00000         1.00000         1.00000         1.00000    
   8      1.00000         1.00000         1.00000         1.00000         1.00000         1.00000         1.00000         1.00000         1.00000         1.00000    
   9      1.00000         1.00000         1.00000         1.00000         1.00000         1.00000         1.00000         1.00000         1.00000         1.00000    
  10      1.00000         1.00000         1.00000         1.00000         1.00000         1.00000         1.00000         1.00000         1.00000         1.00000    
  11      1.00000         1.00000         1.00000         1.00000         1.00000         1.00000         1.00000         1.00000         1.00000         1.00000    
  12      1.00000         1.00000         1.00000         1.00000         1.00000         1.00000         1.00000         1.00000         1.00000         1.00000    
  13      1.00000         1.00000         1.00000         1.00000         1.00000         1.00000         1.00000         1.00000         1.00000         1.00000    
  14      1.00000         1.00000         1.00000         1.00000         1.00000         1.00000         1.00000         1.00000         1.00000         1.00000    
  15      1.00000         1.00000         1.00000         1.00000         1.00000         1.00000         1.00000         1.00000         1.00000         1.00000    

 CONCENTRATION WILL BE SAVED ON UNIT 1030 AT END OF TIME STEP   92, STRESS PERIOD    2


  MASS BUDGET FOR ENTIRE MODEL AT END OF TIME STEP   92, STRESS PERIOD   2
  ---------------------------------------------------------------------------------------------------

     CUMULATIVE MASS      M       RATES FOR THIS TIME STEP      M/T          PACKAGE NAME    
     ------------------                 ------------------------                     ----------------

           IN:                                      IN:
           ---                                      ---
     STORAGE-AQUEOUS =          17.7485       STORAGE-AQUEOUS =           2.0475     MST                              
                 RIV =           0.0000                   RIV =           0.0000     SSM_RIV-1                        
                 CHD =           0.0000                   CHD =           0.0000     SSM_CHD-1                        
                 CNC =           7.3954                   CNC =           0.8526     CNC_0                            

            TOTAL IN =          25.1440              TOTAL IN =           2.9000

          OUT:                                     OUT:
          ----                                     ----
     STORAGE-AQUEOUS =           7.7814       STORAGE-AQUEOUS =           0.8966     MST                              
                 RIV =           0.0000                   RIV =           0.0000     SSM_RIV-1                        
                 CHD =          16.6915                   CHD =           1.9260     SSM_CHD-1                        
                 CNC =           0.6711                   CNC =       7.7430E-02     CNC_0                            

           TOTAL OUT =          25.1440             TOTAL OUT =           2.9000

            IN - OUT =       2.3636E-09              IN - OUT =      -5.0717E-10

 PERCENT DISCREPANCY =           0.00     PERCENT DISCREPANCY =          -0.00




         TIME SUMMARY AT END OF TIME STEP   92 IN STRESS PERIOD    2
                    SECONDS     MINUTES      HOURS       DAYS        YEARS
                    -----------------------------------------------------------
   TIME STEP LENGTH  7200.0      120.00      2.0000     8.33333E-02 2.28154E-04
 STRESS PERIOD TIME 6.62400E+05  11040.      184.00      7.6667     2.09902E-02
         TOTAL TIME 7.48800E+05  12480.      208.00      8.6667     2.37280E-02


end timestep


start timestep kper="2" kstp="93" mode="normal"

 UBDSV1 SAVING  STORAGE-AQUEOUS ON UNIT   1029 AT TIME STEP     93, STRESS PERIOD      2
 UBDSV1 SAVING     FLOW-JA-FACE ON UNIT   1029 AT TIME STEP     93, STRESS PERIOD      2
 UBDSV06 SAVING  SOURCE-SINK MIX IN MODEL GWT_RIVERBASE    PACKAGE GWT_RIVERBASE   CONNECTED TO MODEL GWT_RIVERBASE    PACKAGE SSM              ON UNIT   1029 AT TIME STEP     93, STRESS PERIOD      2
 UBDSV06 SAVING              CNC IN MODEL GWT_RIVERBASE    PACKAGE GWT_RIVERBASE   CONNECTED TO MODEL GWT_RIVERBASE    PACKAGE CNC_0            ON UNIT   1029 AT TIME STEP     93, STRESS PERIOD      2
1
  CONCENTRATION IN LAYER   1 AT END OF TIME STEP  93 IN STRESS PERIOD    2
  ---------------------------------------------------------------------------

                1               2               3               4               5               6               7               8               9              10
 ................................................................................................................................................................
   1      1.00000         1.00000         1.00000         1.00000         1.00000         1.00000         1.00000         1.00000         1.00000         1.00000    
   2     0.999982         1.00000        0.999981         1.00000         1.00000         1.00000         1.00000         1.00000         1.00000         1.00000    
   3      1.00000        0.999981         1.00000         1.00000         1.00000         1.00000         1.00000         1.00000         1.00000         1.00000    
   4      1.00000         1.00000        0.999980         1.00000         1.00000         1.00000         1.00000         1.00000         1.00000         1.00000    
   5      1.00000         1.00002         1.00000        0.999980        0.999979         1.00000         1.00000         1.00000         1.00000         1.00000    
   6      1.00003         10.0000         1.00000        0.999979         1.00000        0.999978         1.00000         1.00000         1.00000         1.00000    
   7      1.00002         10.0000         1.00000         1.00000         1.00000         1.00000        0.999977         1.00000         1.00000         1.00000    
   8      1.00000         1.00002         1.00000         1.00000         1.00000         1.00000         1.00000        0.999977        0.999976         1.00000    
   9      1.00000         1.00000         1.00000         1.00000         1.00000         1.00000         1.00000        0.999976         1.00000         1.00000    
  10      1.00000         1.00000         1.00000         1.00000         1.00000         1.00000         1.00000         1.00000         1.00000         1.00000    
  11      1.00000         1.00000         1.00000         1.00000         1.00000         1.00000         1.00000         1.00000         1.00000         1.00000    
  12      1.00000         1.00000         1.00000         1.00000         1.00000         1.00000         1.00000         1.00000         1.00000         1.00000    
  13      1.00000         1.00000         1.00000         1.00000         1.00000         1.00000         1.00000         1.00000         1.00000         1.00000    
  14      1.00000         1.00000         1.00000         1.00000         1.00000         1.00000         1.00000         1.00000         1.00000         1.00000    
  15      1.00000         1.00000         1.00000         1.00000         1.00000         1.00000         1.00000         1.00000         1.00000         1.00000    
1
  CONCENTRATION IN LAYER   2 AT END OF TIME STEP  93 IN STRESS PERIOD    2
  ---------------------------------------------------------------------------

                1               2               3               4               5               6               7               8               9              10
 ................................................................................................................................................................
   1      1.00000         1.00000         1.00000         1.00000         1.00000         1.00000         1.00000         1.00000         1.00000         1.00000    
   2      1.00000         1.00000         1.00000         1.00000         1.00000         1.00000         1.00000         1.00000         1.00000         1.00000    
   3      1.00000         1.00000         1.00000         1.00000         1.00000         1.00000         1.00000         1.00000         1.00000         1.00000    
   4      1.00000         1.00000         1.00000         1.00000         1.00000         1.00000         1.00000         1.00000         1.00000         1.00000    
   5      1.00000         1.00000         1.00000         1.00000         1.00000         1.00000         1.00000         1.00000         1.00000         1.00000    
   6      1.00000         1.00001         1.00000         1.00000         1.00000         1.00000         1.00000         1.00000         1.00000         1.00000    
   7      1.00000         1.00000         1.00000         1.00000         1.00000         1.00000         1.00000         1.00000         1.00000         1.00000    
   8      1.00000         1.00000         1.00000         1.00000         1.00000         1.00000         1.00000         1.00000         1.00000         1.00000    
   9      1.00000         1.00000         1.00000         1.00000         1.00000         1.00000         1.00000         1.00000         1.00000         1.00000    
  10      1.00000         1.00000         1.00000         1.00000         1.00000         1.00000         1.00000         1.00000         1.00000         1.00000    
  11      1.00000         1.00000         1.00000         1.00000         1.00000         1.00000         1.00000         1.00000         1.00000         1.00000    
  12      1.00000         1.00000         1.00000         1.00000         1.00000         1.00000         1.00000         1.00000         1.00000         1.00000    
  13      1.00000         1.00000         1.00000         1.00000         1.00000         1.00000         1.00000         1.00000         1.00000         1.00000    
  14      1.00000         1.00000         1.00000         1.00000         1.00000         1.00000         1.00000         1.00000         1.00000         1.00000    
  15      1.00000         1.00000         1.00000         1.00000         1.00000         1.00000         1.00000         1.00000         1.00000         1.00000    
1
  CONCENTRATION IN LAYER   3 AT END OF TIME STEP  93 IN STRESS PERIOD    2
  ---------------------------------------------------------------------------

                1               2               3               4               5               6               7               8               9              10
 ................................................................................................................................................................
   1      1.00000         1.00000         1.00000         1.00000         1.00000         1.00000         1.00000         1.00000         1.00000         1.00000    
   2      1.00000         1.00000         1.00000         1.00000         1.00000         1.00000         1.00000         1.00000         1.00000         1.00000    
   3      1.00000         1.00000         1.00000         1.00000         1.00000         1.00000         1.00000         1.00000         1.00000         1.00000    
   4      1.00000         1.00000         1.00000         1.00000         1.00000         1.00000         1.00000         1.00000         1.00000         1.00000    
   5      1.00000         1.00000         1.00000         1.00000         1.00000         1.00000         1.00000         1.00000         1.00000         1.00000    
   6      1.00000         1.00000         1.00000         1.00000         1.00000         1.00000         1.00000         1.00000         1.00000         1.00000    
   7      1.00000         1.00000         1.00000         1.00000         1.00000         1.00000         1.00000         1.00000         1.00000         1.00000    
   8      1.00000         1.00000         1.00000         1.00000         1.00000         1.00000         1.00000         1.00000         1.00000         1.00000    
   9      1.00000         1.00000         1.00000         1.00000         1.00000         1.00000         1.00000         1.00000         1.00000         1.00000    
  10      1.00000         1.00000         1.00000         1.00000         1.00000         1.00000         1.00000         1.00000         1.00000         1.00000    
  11      1.00000         1.00000         1.00000         1.00000         1.00000         1.00000         1.00000         1.00000         1.00000         1.00000    
  12      1.00000         1.00000         1.00000         1.00000         1.00000         1.00000         1.00000         1.00000         1.00000         1.00000    
  13      1.00000         1.00000         1.00000         1.00000         1.00000         1.00000         1.00000         1.00000         1.00000         1.00000    
  14      1.00000         1.00000         1.00000         1.00000         1.00000         1.00000         1.00000         1.00000         1.00000         1.00000    
  15      1.00000         1.00000         1.00000         1.00000         1.00000         1.00000         1.00000         1.00000         1.00000         1.00000    

 CONCENTRATION WILL BE SAVED ON UNIT 1030 AT END OF TIME STEP   93, STRESS PERIOD    2


  MASS BUDGET FOR ENTIRE MODEL AT END OF TIME STEP   93, STRESS PERIOD   2
  ---------------------------------------------------------------------------------------------------

     CUMULATIVE MASS      M       RATES FOR THIS TIME STEP      M/T          PACKAGE NAME    
     ------------------                 ------------------------                     ----------------

           IN:                                      IN:
           ---                                      ---
     STORAGE-AQUEOUS =          17.9192       STORAGE-AQUEOUS =           2.0475     MST                              
                 RIV =           0.0000                   RIV =           0.0000     SSM_RIV-1                        
                 CHD =           0.0000                   CHD =           0.0000     SSM_CHD-1                        
                 CNC =           7.4665                   CNC =           0.8526     CNC_0                            

            TOTAL IN =          25.3857              TOTAL IN =           2.9000

          OUT:                                     OUT:
          ----                                     ----
     STORAGE-AQUEOUS =           7.8561       STORAGE-AQUEOUS =           0.8966     MST                              
                 RIV =           0.0000                   RIV =           0.0000     SSM_RIV-1                        
                 CHD =          16.8520                   CHD =           1.9260     SSM_CHD-1                        
                 CNC =           0.6776                   CNC =       7.7430E-02     CNC_0                            

           TOTAL OUT =          25.3857             TOTAL OUT =           2.9000

            IN - OUT =       2.3760E-09              IN - OUT =       1.4939E-10

 PERCENT DISCREPANCY =           0.00     PERCENT DISCREPANCY =           0.00




         TIME SUMMARY AT END OF TIME STEP   93 IN STRESS PERIOD    2
                    SECONDS     MINUTES      HOURS       DAYS        YEARS
                    -----------------------------------------------------------
   TIME STEP LENGTH  7200.0      120.00      2.0000     8.33333E-02 2.28154E-04
 STRESS PERIOD TIME 6.69600E+05  11160.      186.00      7.7500     2.12183E-02
         TOTAL TIME 7.56000E+05  12600.      210.00      8.7500     2.39562E-02


end timestep


start timestep kper="2" kstp="94" mode="normal"

 UBDSV1 SAVING  STORAGE-AQUEOUS ON UNIT   1029 AT TIME STEP     94, STRESS PERIOD      2
 UBDSV1 SAVING     FLOW-JA-FACE ON UNIT   1029 AT TIME STEP     94, STRESS PERIOD      2
 UBDSV06 SAVING  SOURCE-SINK MIX IN MODEL GWT_RIVERBASE    PACKAGE GWT_RIVERBASE   CONNECTED TO MODEL GWT_RIVERBASE    PACKAGE SSM              ON UNIT   1029 AT TIME STEP     94, STRESS PERIOD      2
 UBDSV06 SAVING              CNC IN MODEL GWT_RIVERBASE    PACKAGE GWT_RIVERBASE   CONNECTED TO MODEL GWT_RIVERBASE    PACKAGE CNC_0            ON UNIT   1029 AT TIME STEP     94, STRESS PERIOD      2
1
  CONCENTRATION IN LAYER   1 AT END OF TIME STEP  94 IN STRESS PERIOD    2
  ---------------------------------------------------------------------------

                1               2               3               4               5               6               7               8               9              10
 ................................................................................................................................................................
   1      1.00000         1.00000         1.00000         1.00000         1.00000         1.00000         1.00000         1.00000         1.00000         1.00000    
   2     0.999981         1.00000        0.999981         1.00000         1.00000         1.00000         1.00000         1.00000         1.00000         1.00000    
   3      1.00000        0.999980         1.00000         1.00000         1.00000         1.00000         1.00000         1.00000         1.00000         1.00000    
   4      1.00000         1.00000        0.999980         1.00000         1.00000         1.00000         1.00000         1.00000         1.00000         1.00000    
   5      1.00000         1.00002         1.00000        0.999980        0.999978         1.00000         1.00000         1.00000         1.00000         1.00000    
   6      1.00003         10.0000         1.00000        0.999979         1.00000        0.999978         1.00000         1.00000         1.00000         1.00000    
   7      1.00002         10.0000         1.00000         1.00000         1.00000         1.00000        0.999977         1.00000         1.00000         1.00000    
   8      1.00000         1.00002         1.00000         1.00000         1.00000         1.00000         1.00000        0.999977        0.999976         1.00000    
   9      1.00000         1.00000         1.00000         1.00000         1.00000         1.00000         1.00000        0.999976         1.00000         1.00000    
  10      1.00000         1.00000         1.00000         1.00000         1.00000         1.00000         1.00000         1.00000         1.00000         1.00000    
  11      1.00000         1.00000         1.00000         1.00000         1.00000         1.00000         1.00000         1.00000         1.00000         1.00000    
  12      1.00000         1.00000         1.00000         1.00000         1.00000         1.00000         1.00000         1.00000         1.00000         1.00000    
  13      1.00000         1.00000         1.00000         1.00000         1.00000         1.00000         1.00000         1.00000         1.00000         1.00000    
  14      1.00000         1.00000         1.00000         1.00000         1.00000         1.00000         1.00000         1.00000         1.00000         1.00000    
  15      1.00000         1.00000         1.00000         1.00000         1.00000         1.00000         1.00000         1.00000         1.00000         1.00000    
1
  CONCENTRATION IN LAYER   2 AT END OF TIME STEP  94 IN STRESS PERIOD    2
  ---------------------------------------------------------------------------

                1               2               3               4               5               6               7               8               9              10
 ................................................................................................................................................................
   1      1.00000         1.00000         1.00000         1.00000         1.00000         1.00000         1.00000         1.00000         1.00000         1.00000    
   2      1.00000         1.00000         1.00000         1.00000         1.00000         1.00000         1.00000         1.00000         1.00000         1.00000    
   3      1.00000         1.00000         1.00000         1.00000         1.00000         1.00000         1.00000         1.00000         1.00000         1.00000    
   4      1.00000         1.00000         1.00000         1.00000         1.00000         1.00000         1.00000         1.00000         1.00000         1.00000    
   5      1.00000         1.00000         1.00000         1.00000         1.00000         1.00000         1.00000         1.00000         1.00000         1.00000    
   6      1.00000         1.00001         1.00000         1.00000         1.00000         1.00000         1.00000         1.00000         1.00000         1.00000    
   7      1.00000         1.00000         1.00000         1.00000         1.00000         1.00000         1.00000         1.00000         1.00000         1.00000    
   8      1.00000         1.00000         1.00000         1.00000         1.00000         1.00000         1.00000         1.00000         1.00000         1.00000    
   9      1.00000         1.00000         1.00000         1.00000         1.00000         1.00000         1.00000         1.00000         1.00000         1.00000    
  10      1.00000         1.00000         1.00000         1.00000         1.00000         1.00000         1.00000         1.00000         1.00000         1.00000    
  11      1.00000         1.00000         1.00000         1.00000         1.00000         1.00000         1.00000         1.00000         1.00000         1.00000    
  12      1.00000         1.00000         1.00000         1.00000         1.00000         1.00000         1.00000         1.00000         1.00000         1.00000    
  13      1.00000         1.00000         1.00000         1.00000         1.00000         1.00000         1.00000         1.00000         1.00000         1.00000    
  14      1.00000         1.00000         1.00000         1.00000         1.00000         1.00000         1.00000         1.00000         1.00000         1.00000    
  15      1.00000         1.00000         1.00000         1.00000         1.00000         1.00000         1.00000         1.00000         1.00000         1.00000    
1
  CONCENTRATION IN LAYER   3 AT END OF TIME STEP  94 IN STRESS PERIOD    2
  ---------------------------------------------------------------------------

                1               2               3               4               5               6               7               8               9              10
 ................................................................................................................................................................
   1      1.00000         1.00000         1.00000         1.00000         1.00000         1.00000         1.00000         1.00000         1.00000         1.00000    
   2      1.00000         1.00000         1.00000         1.00000         1.00000         1.00000         1.00000         1.00000         1.00000         1.00000    
   3      1.00000         1.00000         1.00000         1.00000         1.00000         1.00000         1.00000         1.00000         1.00000         1.00000    
   4      1.00000         1.00000         1.00000         1.00000         1.00000         1.00000         1.00000         1.00000         1.00000         1.00000    
   5      1.00000         1.00000         1.00000         1.00000         1.00000         1.00000         1.00000         1.00000         1.00000         1.00000    
   6      1.00000         1.00000         1.00000         1.00000         1.00000         1.00000         1.00000         1.00000         1.00000         1.00000    
   7      1.00000         1.00000         1.00000         1.00000         1.00000         1.00000         1.00000         1.00000         1.00000         1.00000    
   8      1.00000         1.00000         1.00000         1.00000         1.00000         1.00000         1.00000         1.00000         1.00000         1.00000    
   9      1.00000         1.00000         1.00000         1.00000         1.00000         1.00000         1.00000         1.00000         1.00000         1.00000    
  10      1.00000         1.00000         1.00000         1.00000         1.00000         1.00000         1.00000         1.00000         1.00000         1.00000    
  11      1.00000         1.00000         1.00000         1.00000         1.00000         1.00000         1.00000         1.00000         1.00000         1.00000    
  12      1.00000         1.00000         1.00000         1.00000         1.00000         1.00000         1.00000         1.00000         1.00000         1.00000    
  13      1.00000         1.00000         1.00000         1.00000         1.00000         1.00000         1.00000         1.00000         1.00000         1.00000    
  14      1.00000         1.00000         1.00000         1.00000         1.00000         1.00000         1.00000         1.00000         1.00000         1.00000    
  15      1.00000         1.00000         1.00000         1.00000         1.00000         1.00000         1.00000         1.00000         1.00000         1.00000    

 CONCENTRATION WILL BE SAVED ON UNIT 1030 AT END OF TIME STEP   94, STRESS PERIOD    2


  MASS BUDGET FOR ENTIRE MODEL AT END OF TIME STEP   94, STRESS PERIOD   2
  ---------------------------------------------------------------------------------------------------

     CUMULATIVE MASS      M       RATES FOR THIS TIME STEP      M/T          PACKAGE NAME    
     ------------------                 ------------------------                     ----------------

           IN:                                      IN:
           ---                                      ---
     STORAGE-AQUEOUS =          18.0898       STORAGE-AQUEOUS =           2.0475     MST                              
                 RIV =           0.0000                   RIV =           0.0000     SSM_RIV-1                        
                 CHD =           0.0000                   CHD =           0.0000     SSM_CHD-1                        
                 CNC =           7.5375                   CNC =           0.8526     CNC_0                            

            TOTAL IN =          25.6273              TOTAL IN =           2.9000

          OUT:                                     OUT:
          ----                                     ----
     STORAGE-AQUEOUS =           7.9308       STORAGE-AQUEOUS =           0.8966     MST                              
                 RIV =           0.0000                   RIV =           0.0000     SSM_RIV-1                        
                 CHD =          17.0125                   CHD =           1.9260     SSM_CHD-1                        
                 CNC =           0.6840                   CNC =       7.7430E-02     CNC_0                            

           TOTAL OUT =          25.6273             TOTAL OUT =           2.9000

            IN - OUT =       2.4253E-09              IN - OUT =       5.9160E-10

 PERCENT DISCREPANCY =           0.00     PERCENT DISCREPANCY =           0.00




         TIME SUMMARY AT END OF TIME STEP   94 IN STRESS PERIOD    2
                    SECONDS     MINUTES      HOURS       DAYS        YEARS
                    -----------------------------------------------------------
   TIME STEP LENGTH  7200.0      120.00      2.0000     8.33333E-02 2.28154E-04
 STRESS PERIOD TIME 6.76800E+05  11280.      188.00      7.8333     2.14465E-02
         TOTAL TIME 7.63200E+05  12720.      212.00      8.8333     2.41843E-02


end timestep


start timestep kper="2" kstp="95" mode="normal"

 UBDSV1 SAVING  STORAGE-AQUEOUS ON UNIT   1029 AT TIME STEP     95, STRESS PERIOD      2
 UBDSV1 SAVING     FLOW-JA-FACE ON UNIT   1029 AT TIME STEP     95, STRESS PERIOD      2
 UBDSV06 SAVING  SOURCE-SINK MIX IN MODEL GWT_RIVERBASE    PACKAGE GWT_RIVERBASE   CONNECTED TO MODEL GWT_RIVERBASE    PACKAGE SSM              ON UNIT   1029 AT TIME STEP     95, STRESS PERIOD      2
 UBDSV06 SAVING              CNC IN MODEL GWT_RIVERBASE    PACKAGE GWT_RIVERBASE   CONNECTED TO MODEL GWT_RIVERBASE    PACKAGE CNC_0            ON UNIT   1029 AT TIME STEP     95, STRESS PERIOD      2
1
  CONCENTRATION IN LAYER   1 AT END OF TIME STEP  95 IN STRESS PERIOD    2
  ---------------------------------------------------------------------------

                1               2               3               4               5               6               7               8               9              10
 ................................................................................................................................................................
   1      1.00000         1.00000         1.00000         1.00000         1.00000         1.00000         1.00000         1.00000         1.00000         1.00000    
   2     0.999981         1.00000        0.999981         1.00000         1.00000         1.00000         1.00000         1.00000         1.00000         1.00000    
   3      1.00000        0.999980         1.00000         1.00000         1.00000         1.00000         1.00000         1.00000         1.00000         1.00000    
   4      1.00000         1.00000        0.999980         1.00000         1.00000         1.00000         1.00000         1.00000         1.00000         1.00000    
   5      1.00000         1.00002         1.00000        0.999979        0.999978         1.00000         1.00000         1.00000         1.00000         1.00000    
   6      1.00003         10.0000         1.00000        0.999979         1.00000        0.999978         1.00000         1.00000         1.00000         1.00000    
   7      1.00002         10.0000         1.00000         1.00000         1.00000         1.00000        0.999977         1.00000         1.00000         1.00000    
   8      1.00000         1.00002         1.00000         1.00000         1.00000         1.00000         1.00000        0.999976        0.999975         1.00000    
   9      1.00000         1.00000         1.00000         1.00000         1.00000         1.00000         1.00000        0.999976         1.00000         1.00000    
  10      1.00000         1.00000         1.00000         1.00000         1.00000         1.00000         1.00000         1.00000         1.00000         1.00000    
  11      1.00000         1.00000         1.00000         1.00000         1.00000         1.00000         1.00000         1.00000         1.00000         1.00000    
  12      1.00000         1.00000         1.00000         1.00000         1.00000         1.00000         1.00000         1.00000         1.00000         1.00000    
  13      1.00000         1.00000         1.00000         1.00000         1.00000         1.00000         1.00000         1.00000         1.00000         1.00000    
  14      1.00000         1.00000         1.00000         1.00000         1.00000         1.00000         1.00000         1.00000         1.00000         1.00000    
  15      1.00000         1.00000         1.00000         1.00000         1.00000         1.00000         1.00000         1.00000         1.00000         1.00000    
1
  CONCENTRATION IN LAYER   2 AT END OF TIME STEP  95 IN STRESS PERIOD    2
  ---------------------------------------------------------------------------

                1               2               3               4               5               6               7               8               9              10
 ................................................................................................................................................................
   1      1.00000         1.00000         1.00000         1.00000         1.00000         1.00000         1.00000         1.00000         1.00000         1.00000    
   2      1.00000         1.00000         1.00000         1.00000         1.00000         1.00000         1.00000         1.00000         1.00000         1.00000    
   3      1.00000         1.00000         1.00000         1.00000         1.00000         1.00000         1.00000         1.00000         1.00000         1.00000    
   4      1.00000         1.00000         1.00000         1.00000         1.00000         1.00000         1.00000         1.00000         1.00000         1.00000    
   5      1.00000         1.00000         1.00000         1.00000         1.00000         1.00000         1.00000         1.00000         1.00000         1.00000    
   6      1.00000         1.00001         1.00000         1.00000         1.00000         1.00000         1.00000         1.00000         1.00000         1.00000    
   7      1.00000         1.00000         1.00000         1.00000         1.00000         1.00000         1.00000         1.00000         1.00000         1.00000    
   8      1.00000         1.00000         1.00000         1.00000         1.00000         1.00000         1.00000         1.00000         1.00000         1.00000    
   9      1.00000         1.00000         1.00000         1.00000         1.00000         1.00000         1.00000         1.00000         1.00000         1.00000    
  10      1.00000         1.00000         1.00000         1.00000         1.00000         1.00000         1.00000         1.00000         1.00000         1.00000    
  11      1.00000         1.00000         1.00000         1.00000         1.00000         1.00000         1.00000         1.00000         1.00000         1.00000    
  12      1.00000         1.00000         1.00000         1.00000         1.00000         1.00000         1.00000         1.00000         1.00000         1.00000    
  13      1.00000         1.00000         1.00000         1.00000         1.00000         1.00000         1.00000         1.00000         1.00000         1.00000    
  14      1.00000         1.00000         1.00000         1.00000         1.00000         1.00000         1.00000         1.00000         1.00000         1.00000    
  15      1.00000         1.00000         1.00000         1.00000         1.00000         1.00000         1.00000         1.00000         1.00000         1.00000    
1
  CONCENTRATION IN LAYER   3 AT END OF TIME STEP  95 IN STRESS PERIOD    2
  ---------------------------------------------------------------------------

                1               2               3               4               5               6               7               8               9              10
 ................................................................................................................................................................
   1      1.00000         1.00000         1.00000         1.00000         1.00000         1.00000         1.00000         1.00000         1.00000         1.00000    
   2      1.00000         1.00000         1.00000         1.00000         1.00000         1.00000         1.00000         1.00000         1.00000         1.00000    
   3      1.00000         1.00000         1.00000         1.00000         1.00000         1.00000         1.00000         1.00000         1.00000         1.00000    
   4      1.00000         1.00000         1.00000         1.00000         1.00000         1.00000         1.00000         1.00000         1.00000         1.00000    
   5      1.00000         1.00000         1.00000         1.00000         1.00000         1.00000         1.00000         1.00000         1.00000         1.00000    
   6      1.00000         1.00000         1.00000         1.00000         1.00000         1.00000         1.00000         1.00000         1.00000         1.00000    
   7      1.00000         1.00000         1.00000         1.00000         1.00000         1.00000         1.00000         1.00000         1.00000         1.00000    
   8      1.00000         1.00000         1.00000         1.00000         1.00000         1.00000         1.00000         1.00000         1.00000         1.00000    
   9      1.00000         1.00000         1.00000         1.00000         1.00000         1.00000         1.00000         1.00000         1.00000         1.00000    
  10      1.00000         1.00000         1.00000         1.00000         1.00000         1.00000         1.00000         1.00000         1.00000         1.00000    
  11      1.00000         1.00000         1.00000         1.00000         1.00000         1.00000         1.00000         1.00000         1.00000         1.00000    
  12      1.00000         1.00000         1.00000         1.00000         1.00000         1.00000         1.00000         1.00000         1.00000         1.00000    
  13      1.00000         1.00000         1.00000         1.00000         1.00000         1.00000         1.00000         1.00000         1.00000         1.00000    
  14      1.00000         1.00000         1.00000         1.00000         1.00000         1.00000         1.00000         1.00000         1.00000         1.00000    
  15      1.00000         1.00000         1.00000         1.00000         1.00000         1.00000         1.00000         1.00000         1.00000         1.00000    

 CONCENTRATION WILL BE SAVED ON UNIT 1030 AT END OF TIME STEP   95, STRESS PERIOD    2


  MASS BUDGET FOR ENTIRE MODEL AT END OF TIME STEP   95, STRESS PERIOD   2
  ---------------------------------------------------------------------------------------------------

     CUMULATIVE MASS      M       RATES FOR THIS TIME STEP      M/T          PACKAGE NAME    
     ------------------                 ------------------------                     ----------------

           IN:                                      IN:
           ---                                      ---
     STORAGE-AQUEOUS =          18.2604       STORAGE-AQUEOUS =           2.0475     MST                              
                 RIV =           0.0000                   RIV =           0.0000     SSM_RIV-1                        
                 CHD =           0.0000                   CHD =           0.0000     SSM_CHD-1                        
                 CNC =           7.6086                   CNC =           0.8526     CNC_0                            

            TOTAL IN =          25.8690              TOTAL IN =           2.9000

          OUT:                                     OUT:
          ----                                     ----
     STORAGE-AQUEOUS =           8.0056       STORAGE-AQUEOUS =           0.8966     MST                              
                 RIV =           0.0000                   RIV =           0.0000     SSM_RIV-1                        
                 CHD =          17.1730                   CHD =           1.9260     SSM_CHD-1                        
                 CNC =           0.6905                   CNC =       7.7430E-02     CNC_0                            

           TOTAL OUT =          25.8690             TOTAL OUT =           2.9000

            IN - OUT =       2.3947E-09              IN - OUT =      -3.6723E-10

 PERCENT DISCREPANCY =           0.00     PERCENT DISCREPANCY =          -0.00




         TIME SUMMARY AT END OF TIME STEP   95 IN STRESS PERIOD    2
                    SECONDS     MINUTES      HOURS       DAYS        YEARS
                    -----------------------------------------------------------
   TIME STEP LENGTH  7200.0      120.00      2.0000     8.33333E-02 2.28154E-04
 STRESS PERIOD TIME 6.84000E+05  11400.      190.00      7.9167     2.16747E-02
         TOTAL TIME 7.70400E+05  12840.      214.00      8.9167     2.44125E-02


end timestep


start timestep kper="2" kstp="96" mode="normal"

 UBDSV1 SAVING  STORAGE-AQUEOUS ON UNIT   1029 AT TIME STEP     96, STRESS PERIOD      2
 UBDSV1 SAVING     FLOW-JA-FACE ON UNIT   1029 AT TIME STEP     96, STRESS PERIOD      2
 UBDSV06 SAVING  SOURCE-SINK MIX IN MODEL GWT_RIVERBASE    PACKAGE GWT_RIVERBASE   CONNECTED TO MODEL GWT_RIVERBASE    PACKAGE SSM              ON UNIT   1029 AT TIME STEP     96, STRESS PERIOD      2
 UBDSV06 SAVING              CNC IN MODEL GWT_RIVERBASE    PACKAGE GWT_RIVERBASE   CONNECTED TO MODEL GWT_RIVERBASE    PACKAGE CNC_0            ON UNIT   1029 AT TIME STEP     96, STRESS PERIOD      2
1
  CONCENTRATION IN LAYER   1 AT END OF TIME STEP  96 IN STRESS PERIOD    2
  ---------------------------------------------------------------------------

                1               2               3               4               5               6               7               8               9              10
 ................................................................................................................................................................
   1      1.00000         1.00000         1.00000         1.00000         1.00000         1.00000         1.00000         1.00000         1.00000         1.00000    
   2     0.999981         1.00000        0.999981         1.00000         1.00000         1.00000         1.00000         1.00000         1.00000         1.00000    
   3      1.00000        0.999980         1.00000         1.00000         1.00000         1.00000         1.00000         1.00000         1.00000         1.00000    
   4      1.00000         1.00000        0.999980         1.00000         1.00000         1.00000         1.00000         1.00000         1.00000         1.00000    
   5      1.00000         1.00002         1.00000        0.999979        0.999978         1.00000         1.00000         1.00000         1.00000         1.00000    
   6      1.00003         10.0000         1.00000        0.999979         1.00000        0.999977         1.00000         1.00000         1.00000         1.00000    
   7      1.00002         10.0000         1.00000         1.00000         1.00000         1.00000        0.999977         1.00000         1.00000         1.00000    
   8      1.00000         1.00002         1.00000         1.00000         1.00000         1.00000         1.00000        0.999976        0.999975         1.00000    
   9      1.00000         1.00000         1.00000         1.00000         1.00000         1.00000         1.00000        0.999976         1.00000         1.00000    
  10      1.00000         1.00000         1.00000         1.00000         1.00000         1.00000         1.00000         1.00000         1.00000         1.00000    
  11      1.00000         1.00000         1.00000         1.00000         1.00000         1.00000         1.00000         1.00000         1.00000         1.00000    
  12      1.00000         1.00000         1.00000         1.00000         1.00000         1.00000         1.00000         1.00000         1.00000         1.00000    
  13      1.00000         1.00000         1.00000         1.00000         1.00000         1.00000         1.00000         1.00000         1.00000         1.00000    
  14      1.00000         1.00000         1.00000         1.00000         1.00000         1.00000         1.00000         1.00000         1.00000         1.00000    
  15      1.00000         1.00000         1.00000         1.00000         1.00000         1.00000         1.00000         1.00000         1.00000         1.00000    
1
  CONCENTRATION IN LAYER   2 AT END OF TIME STEP  96 IN STRESS PERIOD    2
  ---------------------------------------------------------------------------

                1               2               3               4               5               6               7               8               9              10
 ................................................................................................................................................................
   1      1.00000         1.00000         1.00000         1.00000         1.00000         1.00000         1.00000         1.00000         1.00000         1.00000    
   2      1.00000         1.00000         1.00000         1.00000         1.00000         1.00000         1.00000         1.00000         1.00000         1.00000    
   3      1.00000         1.00000         1.00000         1.00000         1.00000         1.00000         1.00000         1.00000         1.00000         1.00000    
   4      1.00000         1.00000         1.00000         1.00000         1.00000         1.00000         1.00000         1.00000         1.00000         1.00000    
   5      1.00000         1.00000         1.00000         1.00000         1.00000         1.00000         1.00000         1.00000         1.00000         1.00000    
   6      1.00000         1.00001         1.00000         1.00000         1.00000         1.00000         1.00000         1.00000         1.00000         1.00000    
   7      1.00000         1.00000         1.00000         1.00000         1.00000         1.00000         1.00000         1.00000         1.00000         1.00000    
   8      1.00000         1.00000         1.00000         1.00000         1.00000         1.00000         1.00000         1.00000         1.00000         1.00000    
   9      1.00000         1.00000         1.00000         1.00000         1.00000         1.00000         1.00000         1.00000         1.00000         1.00000    
  10      1.00000         1.00000         1.00000         1.00000         1.00000         1.00000         1.00000         1.00000         1.00000         1.00000    
  11      1.00000         1.00000         1.00000         1.00000         1.00000         1.00000         1.00000         1.00000         1.00000         1.00000    
  12      1.00000         1.00000         1.00000         1.00000         1.00000         1.00000         1.00000         1.00000         1.00000         1.00000    
  13      1.00000         1.00000         1.00000         1.00000         1.00000         1.00000         1.00000         1.00000         1.00000         1.00000    
  14      1.00000         1.00000         1.00000         1.00000         1.00000         1.00000         1.00000         1.00000         1.00000         1.00000    
  15      1.00000         1.00000         1.00000         1.00000         1.00000         1.00000         1.00000         1.00000         1.00000         1.00000    
1
  CONCENTRATION IN LAYER   3 AT END OF TIME STEP  96 IN STRESS PERIOD    2
  ---------------------------------------------------------------------------

                1               2               3               4               5               6               7               8               9              10
 ................................................................................................................................................................
   1      1.00000         1.00000         1.00000         1.00000         1.00000         1.00000         1.00000         1.00000         1.00000         1.00000    
   2      1.00000         1.00000         1.00000         1.00000         1.00000         1.00000         1.00000         1.00000         1.00000         1.00000    
   3      1.00000         1.00000         1.00000         1.00000         1.00000         1.00000         1.00000         1.00000         1.00000         1.00000    
   4      1.00000         1.00000         1.00000         1.00000         1.00000         1.00000         1.00000         1.00000         1.00000         1.00000    
   5      1.00000         1.00000         1.00000         1.00000         1.00000         1.00000         1.00000         1.00000         1.00000         1.00000    
   6      1.00000         1.00000         1.00000         1.00000         1.00000         1.00000         1.00000         1.00000         1.00000         1.00000    
   7      1.00000         1.00000         1.00000         1.00000         1.00000         1.00000         1.00000         1.00000         1.00000         1.00000    
   8      1.00000         1.00000         1.00000         1.00000         1.00000         1.00000         1.00000         1.00000         1.00000         1.00000    
   9      1.00000         1.00000         1.00000         1.00000         1.00000         1.00000         1.00000         1.00000         1.00000         1.00000    
  10      1.00000         1.00000         1.00000         1.00000         1.00000         1.00000         1.00000         1.00000         1.00000         1.00000    
  11      1.00000         1.00000         1.00000         1.00000         1.00000         1.00000         1.00000         1.00000         1.00000         1.00000    
  12      1.00000         1.00000         1.00000         1.00000         1.00000         1.00000         1.00000         1.00000         1.00000         1.00000    
  13      1.00000         1.00000         1.00000         1.00000         1.00000         1.00000         1.00000         1.00000         1.00000         1.00000    
  14      1.00000         1.00000         1.00000         1.00000         1.00000         1.00000         1.00000         1.00000         1.00000         1.00000    
  15      1.00000         1.00000         1.00000         1.00000         1.00000         1.00000         1.00000         1.00000         1.00000         1.00000    

 CONCENTRATION WILL BE SAVED ON UNIT 1030 AT END OF TIME STEP   96, STRESS PERIOD    2


  MASS BUDGET FOR ENTIRE MODEL AT END OF TIME STEP   96, STRESS PERIOD   2
  ---------------------------------------------------------------------------------------------------

     CUMULATIVE MASS      M       RATES FOR THIS TIME STEP      M/T          PACKAGE NAME    
     ------------------                 ------------------------                     ----------------

           IN:                                      IN:
           ---                                      ---
     STORAGE-AQUEOUS =          18.4310       STORAGE-AQUEOUS =           2.0475     MST                              
                 RIV =           0.0000                   RIV =           0.0000     SSM_RIV-1                        
                 CHD =           0.0000                   CHD =           0.0000     SSM_CHD-1                        
                 CNC =           7.6796                   CNC =           0.8526     CNC_0                            

            TOTAL IN =          26.1107              TOTAL IN =           2.9000

          OUT:                                     OUT:
          ----                                     ----
     STORAGE-AQUEOUS =           8.0803       STORAGE-AQUEOUS =           0.8966     MST                              
                 RIV =           0.0000                   RIV =           0.0000     SSM_RIV-1                        
                 CHD =          17.3335                   CHD =           1.9260     SSM_CHD-1                        
                 CNC =           0.6969                   CNC =       7.7430E-02     CNC_0                            

           TOTAL OUT =          26.1107             TOTAL OUT =           2.9000

            IN - OUT =       2.7229E-09              IN - OUT =       3.9385E-09

 PERCENT DISCREPANCY =           0.00     PERCENT DISCREPANCY =           0.00




         TIME SUMMARY AT END OF TIME STEP   96 IN STRESS PERIOD    2
                    SECONDS     MINUTES      HOURS       DAYS        YEARS
                    -----------------------------------------------------------
   TIME STEP LENGTH  7200.0      120.00      2.0000     8.33333E-02 2.28154E-04
 STRESS PERIOD TIME 6.91200E+05  11520.      192.00      8.0000     2.19028E-02
         TOTAL TIME 7.77600E+05  12960.      216.00      9.0000     2.46407E-02


end timestep


start timestep kper="2" kstp="97" mode="normal"

 UBDSV1 SAVING  STORAGE-AQUEOUS ON UNIT   1029 AT TIME STEP     97, STRESS PERIOD      2
 UBDSV1 SAVING     FLOW-JA-FACE ON UNIT   1029 AT TIME STEP     97, STRESS PERIOD      2
 UBDSV06 SAVING  SOURCE-SINK MIX IN MODEL GWT_RIVERBASE    PACKAGE GWT_RIVERBASE   CONNECTED TO MODEL GWT_RIVERBASE    PACKAGE SSM              ON UNIT   1029 AT TIME STEP     97, STRESS PERIOD      2
 UBDSV06 SAVING              CNC IN MODEL GWT_RIVERBASE    PACKAGE GWT_RIVERBASE   CONNECTED TO MODEL GWT_RIVERBASE    PACKAGE CNC_0            ON UNIT   1029 AT TIME STEP     97, STRESS PERIOD      2
1
  CONCENTRATION IN LAYER   1 AT END OF TIME STEP  97 IN STRESS PERIOD    2
  ---------------------------------------------------------------------------

                1               2               3               4               5               6               7               8               9              10
 ................................................................................................................................................................
   1      1.00000         1.00000         1.00000         1.00000         1.00000         1.00000         1.00000         1.00000         1.00000         1.00000    
   2     0.999981         1.00000        0.999981         1.00000         1.00000         1.00000         1.00000         1.00000         1.00000         1.00000    
   3      1.00000        0.999980         1.00000         1.00000         1.00000         1.00000         1.00000         1.00000         1.00000         1.00000    
   4      1.00000         1.00000        0.999979         1.00000         1.00000         1.00000         1.00000         1.00000         1.00000         1.00000    
   5      1.00000         1.00002         1.00000        0.999979        0.999978         1.00000         1.00000         1.00000         1.00000         1.00000    
   6      1.00003         10.0000         1.00000        0.999978         1.00000        0.999977         1.00000         1.00000         1.00000         1.00000    
   7      1.00002         10.0000         1.00000         1.00000         1.00000         1.00000        0.999977         1.00000         1.00000         1.00000    
   8      1.00000         1.00002         1.00000         1.00000         1.00000         1.00000         1.00000        0.999976        0.999975         1.00000    
   9      1.00000         1.00000         1.00000         1.00000         1.00000         1.00000         1.00000        0.999975         1.00000         1.00000    
  10      1.00000         1.00000         1.00000         1.00000         1.00000         1.00000         1.00000         1.00000         1.00000         1.00000    
  11      1.00000         1.00000         1.00000         1.00000         1.00000         1.00000         1.00000         1.00000         1.00000         1.00000    
  12      1.00000         1.00000         1.00000         1.00000         1.00000         1.00000         1.00000         1.00000         1.00000         1.00000    
  13      1.00000         1.00000         1.00000         1.00000         1.00000         1.00000         1.00000         1.00000         1.00000         1.00000    
  14      1.00000         1.00000         1.00000         1.00000         1.00000         1.00000         1.00000         1.00000         1.00000         1.00000    
  15      1.00000         1.00000         1.00000         1.00000         1.00000         1.00000         1.00000         1.00000         1.00000         1.00000    
1
  CONCENTRATION IN LAYER   2 AT END OF TIME STEP  97 IN STRESS PERIOD    2
  ---------------------------------------------------------------------------

                1               2               3               4               5               6               7               8               9              10
 ................................................................................................................................................................
   1      1.00000         1.00000         1.00000         1.00000         1.00000         1.00000         1.00000         1.00000         1.00000         1.00000    
   2      1.00000         1.00000         1.00000         1.00000         1.00000         1.00000         1.00000         1.00000         1.00000         1.00000    
   3      1.00000         1.00000         1.00000         1.00000         1.00000         1.00000         1.00000         1.00000         1.00000         1.00000    
   4      1.00000         1.00000         1.00000         1.00000         1.00000         1.00000         1.00000         1.00000         1.00000         1.00000    
   5      1.00000         1.00000         1.00000         1.00000         1.00000         1.00000         1.00000         1.00000         1.00000         1.00000    
   6      1.00000         1.00001         1.00000         1.00000         1.00000         1.00000         1.00000         1.00000         1.00000         1.00000    
   7      1.00000         1.00000         1.00000         1.00000         1.00000         1.00000         1.00000         1.00000         1.00000         1.00000    
   8      1.00000         1.00000         1.00000         1.00000         1.00000         1.00000         1.00000         1.00000         1.00000         1.00000    
   9      1.00000         1.00000         1.00000         1.00000         1.00000         1.00000         1.00000         1.00000         1.00000         1.00000    
  10      1.00000         1.00000         1.00000         1.00000         1.00000         1.00000         1.00000         1.00000         1.00000         1.00000    
  11      1.00000         1.00000         1.00000         1.00000         1.00000         1.00000         1.00000         1.00000         1.00000         1.00000    
  12      1.00000         1.00000         1.00000         1.00000         1.00000         1.00000         1.00000         1.00000         1.00000         1.00000    
  13      1.00000         1.00000         1.00000         1.00000         1.00000         1.00000         1.00000         1.00000         1.00000         1.00000    
  14      1.00000         1.00000         1.00000         1.00000         1.00000         1.00000         1.00000         1.00000         1.00000         1.00000    
  15      1.00000         1.00000         1.00000         1.00000         1.00000         1.00000         1.00000         1.00000         1.00000         1.00000    
1
  CONCENTRATION IN LAYER   3 AT END OF TIME STEP  97 IN STRESS PERIOD    2
  ---------------------------------------------------------------------------

                1               2               3               4               5               6               7               8               9              10
 ................................................................................................................................................................
   1      1.00000         1.00000         1.00000         1.00000         1.00000         1.00000         1.00000         1.00000         1.00000         1.00000    
   2      1.00000         1.00000         1.00000         1.00000         1.00000         1.00000         1.00000         1.00000         1.00000         1.00000    
   3      1.00000         1.00000         1.00000         1.00000         1.00000         1.00000         1.00000         1.00000         1.00000         1.00000    
   4      1.00000         1.00000         1.00000         1.00000         1.00000         1.00000         1.00000         1.00000         1.00000         1.00000    
   5      1.00000         1.00000         1.00000         1.00000         1.00000         1.00000         1.00000         1.00000         1.00000         1.00000    
   6      1.00000         1.00000         1.00000         1.00000         1.00000         1.00000         1.00000         1.00000         1.00000         1.00000    
   7      1.00000         1.00000         1.00000         1.00000         1.00000         1.00000         1.00000         1.00000         1.00000         1.00000    
   8      1.00000         1.00000         1.00000         1.00000         1.00000         1.00000         1.00000         1.00000         1.00000         1.00000    
   9      1.00000         1.00000         1.00000         1.00000         1.00000         1.00000         1.00000         1.00000         1.00000         1.00000    
  10      1.00000         1.00000         1.00000         1.00000         1.00000         1.00000         1.00000         1.00000         1.00000         1.00000    
  11      1.00000         1.00000         1.00000         1.00000         1.00000         1.00000         1.00000         1.00000         1.00000         1.00000    
  12      1.00000         1.00000         1.00000         1.00000         1.00000         1.00000         1.00000         1.00000         1.00000         1.00000    
  13      1.00000         1.00000         1.00000         1.00000         1.00000         1.00000         1.00000         1.00000         1.00000         1.00000    
  14      1.00000         1.00000         1.00000         1.00000         1.00000         1.00000         1.00000         1.00000         1.00000         1.00000    
  15      1.00000         1.00000         1.00000         1.00000         1.00000         1.00000         1.00000         1.00000         1.00000         1.00000    

 CONCENTRATION WILL BE SAVED ON UNIT 1030 AT END OF TIME STEP   97, STRESS PERIOD    2


  MASS BUDGET FOR ENTIRE MODEL AT END OF TIME STEP   97, STRESS PERIOD   2
  ---------------------------------------------------------------------------------------------------

     CUMULATIVE MASS      M       RATES FOR THIS TIME STEP      M/T          PACKAGE NAME    
     ------------------                 ------------------------                     ----------------

           IN:                                      IN:
           ---                                      ---
     STORAGE-AQUEOUS =          18.6016       STORAGE-AQUEOUS =           2.0475     MST                              
                 RIV =           0.0000                   RIV =           0.0000     SSM_RIV-1                        
                 CHD =           0.0000                   CHD =           0.0000     SSM_CHD-1                        
                 CNC =           7.7507                   CNC =           0.8526     CNC_0                            

            TOTAL IN =          26.3523              TOTAL IN =           2.9000

          OUT:                                     OUT:
          ----                                     ----
     STORAGE-AQUEOUS =           8.1550       STORAGE-AQUEOUS =           0.8966     MST                              
                 RIV =           0.0000                   RIV =           0.0000     SSM_RIV-1                        
                 CHD =          17.4940                   CHD =           1.9260     SSM_CHD-1                        
                 CNC =           0.7034                   CNC =       7.7430E-02     CNC_0                            

           TOTAL OUT =          26.3523             TOTAL OUT =           2.9000

            IN - OUT =       2.6096E-09              IN - OUT =      -1.3596E-09

 PERCENT DISCREPANCY =           0.00     PERCENT DISCREPANCY =          -0.00




         TIME SUMMARY AT END OF TIME STEP   97 IN STRESS PERIOD    2
                    SECONDS     MINUTES      HOURS       DAYS        YEARS
                    -----------------------------------------------------------
   TIME STEP LENGTH  7200.0      120.00      2.0000     8.33333E-02 2.28154E-04
 STRESS PERIOD TIME 6.98400E+05  11640.      194.00      8.0833     2.21310E-02
         TOTAL TIME 7.84800E+05  13080.      218.00      9.0833     2.48688E-02


end timestep


start timestep kper="2" kstp="98" mode="normal"

 UBDSV1 SAVING  STORAGE-AQUEOUS ON UNIT   1029 AT TIME STEP     98, STRESS PERIOD      2
 UBDSV1 SAVING     FLOW-JA-FACE ON UNIT   1029 AT TIME STEP     98, STRESS PERIOD      2
 UBDSV06 SAVING  SOURCE-SINK MIX IN MODEL GWT_RIVERBASE    PACKAGE GWT_RIVERBASE   CONNECTED TO MODEL GWT_RIVERBASE    PACKAGE SSM              ON UNIT   1029 AT TIME STEP     98, STRESS PERIOD      2
 UBDSV06 SAVING              CNC IN MODEL GWT_RIVERBASE    PACKAGE GWT_RIVERBASE   CONNECTED TO MODEL GWT_RIVERBASE    PACKAGE CNC_0            ON UNIT   1029 AT TIME STEP     98, STRESS PERIOD      2
1
  CONCENTRATION IN LAYER   1 AT END OF TIME STEP  98 IN STRESS PERIOD    2
  ---------------------------------------------------------------------------

                1               2               3               4               5               6               7               8               9              10
 ................................................................................................................................................................
   1      1.00000         1.00000         1.00000         1.00000         1.00000         1.00000         1.00000         1.00000         1.00000         1.00000    
   2     0.999981         1.00000        0.999980         1.00000         1.00000         1.00000         1.00000         1.00000         1.00000         1.00000    
   3      1.00000        0.999980         1.00000         1.00000         1.00000         1.00000         1.00000         1.00000         1.00000         1.00000    
   4      1.00000         1.00000        0.999979         1.00000         1.00000         1.00000         1.00000         1.00000         1.00000         1.00000    
   5      1.00000         1.00002         1.00000        0.999979        0.999978         1.00000         1.00000         1.00000         1.00000         1.00000    
   6      1.00003         10.0000         1.00000        0.999978         1.00000        0.999977         1.00000         1.00000         1.00000         1.00000    
   7      1.00002         10.0000         1.00000         1.00000         1.00000         1.00000        0.999976         1.00000         1.00000         1.00000    
   8      1.00000         1.00002         1.00000         1.00000         1.00000         1.00000         1.00000        0.999976        0.999975         1.00000    
   9      1.00000         1.00000         1.00000         1.00000         1.00000         1.00000         1.00000        0.999975         1.00000         1.00000    
  10      1.00000         1.00000         1.00000         1.00000         1.00000         1.00000         1.00000         1.00000         1.00000         1.00000    
  11      1.00000         1.00000         1.00000         1.00000         1.00000         1.00000         1.00000         1.00000         1.00000         1.00000    
  12      1.00000         1.00000         1.00000         1.00000         1.00000         1.00000         1.00000         1.00000         1.00000         1.00000    
  13      1.00000         1.00000         1.00000         1.00000         1.00000         1.00000         1.00000         1.00000         1.00000         1.00000    
  14      1.00000         1.00000         1.00000         1.00000         1.00000         1.00000         1.00000         1.00000         1.00000         1.00000    
  15      1.00000         1.00000         1.00000         1.00000         1.00000         1.00000         1.00000         1.00000         1.00000         1.00000    
1
  CONCENTRATION IN LAYER   2 AT END OF TIME STEP  98 IN STRESS PERIOD    2
  ---------------------------------------------------------------------------

                1               2               3               4               5               6               7               8               9              10
 ................................................................................................................................................................
   1      1.00000         1.00000         1.00000         1.00000         1.00000         1.00000         1.00000         1.00000         1.00000         1.00000    
   2      1.00000         1.00000         1.00000         1.00000         1.00000         1.00000         1.00000         1.00000         1.00000         1.00000    
   3      1.00000         1.00000         1.00000         1.00000         1.00000         1.00000         1.00000         1.00000         1.00000         1.00000    
   4      1.00000         1.00000         1.00000         1.00000         1.00000         1.00000         1.00000         1.00000         1.00000         1.00000    
   5      1.00000         1.00000         1.00000         1.00000         1.00000         1.00000         1.00000         1.00000         1.00000         1.00000    
   6      1.00000         1.00001         1.00000         1.00000         1.00000         1.00000         1.00000         1.00000         1.00000         1.00000    
   7      1.00000         1.00000         1.00000         1.00000         1.00000         1.00000         1.00000         1.00000         1.00000         1.00000    
   8      1.00000         1.00000         1.00000         1.00000         1.00000         1.00000         1.00000         1.00000         1.00000         1.00000    
   9      1.00000         1.00000         1.00000         1.00000         1.00000         1.00000         1.00000         1.00000         1.00000         1.00000    
  10      1.00000         1.00000         1.00000         1.00000         1.00000         1.00000         1.00000         1.00000         1.00000         1.00000    
  11      1.00000         1.00000         1.00000         1.00000         1.00000         1.00000         1.00000         1.00000         1.00000         1.00000    
  12      1.00000         1.00000         1.00000         1.00000         1.00000         1.00000         1.00000         1.00000         1.00000         1.00000    
  13      1.00000         1.00000         1.00000         1.00000         1.00000         1.00000         1.00000         1.00000         1.00000         1.00000    
  14      1.00000         1.00000         1.00000         1.00000         1.00000         1.00000         1.00000         1.00000         1.00000         1.00000    
  15      1.00000         1.00000         1.00000         1.00000         1.00000         1.00000         1.00000         1.00000         1.00000         1.00000    
1
  CONCENTRATION IN LAYER   3 AT END OF TIME STEP  98 IN STRESS PERIOD    2
  ---------------------------------------------------------------------------

                1               2               3               4               5               6               7               8               9              10
 ................................................................................................................................................................
   1      1.00000         1.00000         1.00000         1.00000         1.00000         1.00000         1.00000         1.00000         1.00000         1.00000    
   2      1.00000         1.00000         1.00000         1.00000         1.00000         1.00000         1.00000         1.00000         1.00000         1.00000    
   3      1.00000         1.00000         1.00000         1.00000         1.00000         1.00000         1.00000         1.00000         1.00000         1.00000    
   4      1.00000         1.00000         1.00000         1.00000         1.00000         1.00000         1.00000         1.00000         1.00000         1.00000    
   5      1.00000         1.00000         1.00000         1.00000         1.00000         1.00000         1.00000         1.00000         1.00000         1.00000    
   6      1.00000         1.00000         1.00000         1.00000         1.00000         1.00000         1.00000         1.00000         1.00000         1.00000    
   7      1.00000         1.00000         1.00000         1.00000         1.00000         1.00000         1.00000         1.00000         1.00000         1.00000    
   8      1.00000         1.00000         1.00000         1.00000         1.00000         1.00000         1.00000         1.00000         1.00000         1.00000    
   9      1.00000         1.00000         1.00000         1.00000         1.00000         1.00000         1.00000         1.00000         1.00000         1.00000    
  10      1.00000         1.00000         1.00000         1.00000         1.00000         1.00000         1.00000         1.00000         1.00000         1.00000    
  11      1.00000         1.00000         1.00000         1.00000         1.00000         1.00000         1.00000         1.00000         1.00000         1.00000    
  12      1.00000         1.00000         1.00000         1.00000         1.00000         1.00000         1.00000         1.00000         1.00000         1.00000    
  13      1.00000         1.00000         1.00000         1.00000         1.00000         1.00000         1.00000         1.00000         1.00000         1.00000    
  14      1.00000         1.00000         1.00000         1.00000         1.00000         1.00000         1.00000         1.00000         1.00000         1.00000    
  15      1.00000         1.00000         1.00000         1.00000         1.00000         1.00000         1.00000         1.00000         1.00000         1.00000    

 CONCENTRATION WILL BE SAVED ON UNIT 1030 AT END OF TIME STEP   98, STRESS PERIOD    2


  MASS BUDGET FOR ENTIRE MODEL AT END OF TIME STEP   98, STRESS PERIOD   2
  ---------------------------------------------------------------------------------------------------

     CUMULATIVE MASS      M       RATES FOR THIS TIME STEP      M/T          PACKAGE NAME    
     ------------------                 ------------------------                     ----------------

           IN:                                      IN:
           ---                                      ---
     STORAGE-AQUEOUS =          18.7723       STORAGE-AQUEOUS =           2.0475     MST                              
                 RIV =           0.0000                   RIV =           0.0000     SSM_RIV-1                        
                 CHD =           0.0000                   CHD =           0.0000     SSM_CHD-1                        
                 CNC =           7.8217                   CNC =           0.8526     CNC_0                            

            TOTAL IN =          26.5940              TOTAL IN =           2.9000

          OUT:                                     OUT:
          ----                                     ----
     STORAGE-AQUEOUS =           8.2297       STORAGE-AQUEOUS =           0.8966     MST                              
                 RIV =           0.0000                   RIV =           0.0000     SSM_RIV-1                        
                 CHD =          17.6545                   CHD =           1.9260     SSM_CHD-1                        
                 CNC =           0.7098                   CNC =       7.7430E-02     CNC_0                            

           TOTAL OUT =          26.5940             TOTAL OUT =           2.9000

            IN - OUT =       2.7731E-09              IN - OUT =       1.9610E-09

 PERCENT DISCREPANCY =           0.00     PERCENT DISCREPANCY =           0.00




         TIME SUMMARY AT END OF TIME STEP   98 IN STRESS PERIOD    2
                    SECONDS     MINUTES      HOURS       DAYS        YEARS
                    -----------------------------------------------------------
   TIME STEP LENGTH  7200.0      120.00      2.0000     8.33333E-02 2.28154E-04
 STRESS PERIOD TIME 7.05600E+05  11760.      196.00      8.1667     2.23591E-02
         TOTAL TIME 7.92000E+05  13200.      220.00      9.1667     2.50970E-02


end timestep


start timestep kper="2" kstp="99" mode="normal"

 UBDSV1 SAVING  STORAGE-AQUEOUS ON UNIT   1029 AT TIME STEP     99, STRESS PERIOD      2
 UBDSV1 SAVING     FLOW-JA-FACE ON UNIT   1029 AT TIME STEP     99, STRESS PERIOD      2
 UBDSV06 SAVING  SOURCE-SINK MIX IN MODEL GWT_RIVERBASE    PACKAGE GWT_RIVERBASE   CONNECTED TO MODEL GWT_RIVERBASE    PACKAGE SSM              ON UNIT   1029 AT TIME STEP     99, STRESS PERIOD      2
 UBDSV06 SAVING              CNC IN MODEL GWT_RIVERBASE    PACKAGE GWT_RIVERBASE   CONNECTED TO MODEL GWT_RIVERBASE    PACKAGE CNC_0            ON UNIT   1029 AT TIME STEP     99, STRESS PERIOD      2
1
  CONCENTRATION IN LAYER   1 AT END OF TIME STEP  99 IN STRESS PERIOD    2
  ---------------------------------------------------------------------------

                1               2               3               4               5               6               7               8               9              10
 ................................................................................................................................................................
   1      1.00000         1.00000         1.00000         1.00000         1.00000         1.00000         1.00000         1.00000         1.00000         1.00000    
   2     0.999981         1.00000        0.999980         1.00000         1.00000         1.00000         1.00000         1.00000         1.00000         1.00000    
   3      1.00000        0.999980         1.00000         1.00000         1.00000         1.00000         1.00000         1.00000         1.00000         1.00000    
   4      1.00000         1.00000        0.999979         1.00000         1.00000         1.00000         1.00000         1.00000         1.00000         1.00000    
   5      1.00000         1.00002         1.00000        0.999979        0.999977         1.00000         1.00000         1.00000         1.00000         1.00000    
   6      1.00003         10.0000         1.00000        0.999978         1.00000        0.999977         1.00000         1.00000         1.00000         1.00000    
   7      1.00002         10.0000         1.00000         1.00000         1.00000         1.00000        0.999976         1.00000         1.00000         1.00000    
   8      1.00000         1.00002         1.00000         1.00000         1.00000         1.00000         1.00000        0.999976        0.999974         1.00000    
   9      1.00000         1.00000         1.00000         1.00000         1.00000         1.00000         1.00000        0.999975         1.00000         1.00000    
  10      1.00000         1.00000         1.00000         1.00000         1.00000         1.00000         1.00000         1.00000         1.00000         1.00000    
  11      1.00000         1.00000         1.00000         1.00000         1.00000         1.00000         1.00000         1.00000         1.00000         1.00000    
  12      1.00000         1.00000         1.00000         1.00000         1.00000         1.00000         1.00000         1.00000         1.00000         1.00000    
  13      1.00000         1.00000         1.00000         1.00000         1.00000         1.00000         1.00000         1.00000         1.00000         1.00000    
  14      1.00000         1.00000         1.00000         1.00000         1.00000         1.00000         1.00000         1.00000         1.00000         1.00000    
  15      1.00000         1.00000         1.00000         1.00000         1.00000         1.00000         1.00000         1.00000         1.00000         1.00000    
1
  CONCENTRATION IN LAYER   2 AT END OF TIME STEP  99 IN STRESS PERIOD    2
  ---------------------------------------------------------------------------

                1               2               3               4               5               6               7               8               9              10
 ................................................................................................................................................................
   1      1.00000         1.00000         1.00000         1.00000         1.00000         1.00000         1.00000         1.00000         1.00000         1.00000    
   2      1.00000         1.00000         1.00000         1.00000         1.00000         1.00000         1.00000         1.00000         1.00000         1.00000    
   3      1.00000         1.00000         1.00000         1.00000         1.00000         1.00000         1.00000         1.00000         1.00000         1.00000    
   4      1.00000         1.00000         1.00000         1.00000         1.00000         1.00000         1.00000         1.00000         1.00000         1.00000    
   5      1.00000         1.00000         1.00000         1.00000         1.00000         1.00000         1.00000         1.00000         1.00000         1.00000    
   6      1.00000         1.00001         1.00000         1.00000         1.00000         1.00000         1.00000         1.00000         1.00000         1.00000    
   7      1.00000         1.00000         1.00000         1.00000         1.00000         1.00000         1.00000         1.00000         1.00000         1.00000    
   8      1.00000         1.00000         1.00000         1.00000         1.00000         1.00000         1.00000         1.00000         1.00000         1.00000    
   9      1.00000         1.00000         1.00000         1.00000         1.00000         1.00000         1.00000         1.00000         1.00000         1.00000    
  10      1.00000         1.00000         1.00000         1.00000         1.00000         1.00000         1.00000         1.00000         1.00000         1.00000    
  11      1.00000         1.00000         1.00000         1.00000         1.00000         1.00000         1.00000         1.00000         1.00000         1.00000    
  12      1.00000         1.00000         1.00000         1.00000         1.00000         1.00000         1.00000         1.00000         1.00000         1.00000    
  13      1.00000         1.00000         1.00000         1.00000         1.00000         1.00000         1.00000         1.00000         1.00000         1.00000    
  14      1.00000         1.00000         1.00000         1.00000         1.00000         1.00000         1.00000         1.00000         1.00000         1.00000    
  15      1.00000         1.00000         1.00000         1.00000         1.00000         1.00000         1.00000         1.00000         1.00000         1.00000    
1
  CONCENTRATION IN LAYER   3 AT END OF TIME STEP  99 IN STRESS PERIOD    2
  ---------------------------------------------------------------------------

                1               2               3               4               5               6               7               8               9              10
 ................................................................................................................................................................
   1      1.00000         1.00000         1.00000         1.00000         1.00000         1.00000         1.00000         1.00000         1.00000         1.00000    
   2      1.00000         1.00000         1.00000         1.00000         1.00000         1.00000         1.00000         1.00000         1.00000         1.00000    
   3      1.00000         1.00000         1.00000         1.00000         1.00000         1.00000         1.00000         1.00000         1.00000         1.00000    
   4      1.00000         1.00000         1.00000         1.00000         1.00000         1.00000         1.00000         1.00000         1.00000         1.00000    
   5      1.00000         1.00000         1.00000         1.00000         1.00000         1.00000         1.00000         1.00000         1.00000         1.00000    
   6      1.00000         1.00000         1.00000         1.00000         1.00000         1.00000         1.00000         1.00000         1.00000         1.00000    
   7      1.00000         1.00000         1.00000         1.00000         1.00000         1.00000         1.00000         1.00000         1.00000         1.00000    
   8      1.00000         1.00000         1.00000         1.00000         1.00000         1.00000         1.00000         1.00000         1.00000         1.00000    
   9      1.00000         1.00000         1.00000         1.00000         1.00000         1.00000         1.00000         1.00000         1.00000         1.00000    
  10      1.00000         1.00000         1.00000         1.00000         1.00000         1.00000         1.00000         1.00000         1.00000         1.00000    
  11      1.00000         1.00000         1.00000         1.00000         1.00000         1.00000         1.00000         1.00000         1.00000         1.00000    
  12      1.00000         1.00000         1.00000         1.00000         1.00000         1.00000         1.00000         1.00000         1.00000         1.00000    
  13      1.00000         1.00000         1.00000         1.00000         1.00000         1.00000         1.00000         1.00000         1.00000         1.00000    
  14      1.00000         1.00000         1.00000         1.00000         1.00000         1.00000         1.00000         1.00000         1.00000         1.00000    
  15      1.00000         1.00000         1.00000         1.00000         1.00000         1.00000         1.00000         1.00000         1.00000         1.00000    

 CONCENTRATION WILL BE SAVED ON UNIT 1030 AT END OF TIME STEP   99, STRESS PERIOD    2


  MASS BUDGET FOR ENTIRE MODEL AT END OF TIME STEP   99, STRESS PERIOD   2
  ---------------------------------------------------------------------------------------------------

     CUMULATIVE MASS      M       RATES FOR THIS TIME STEP      M/T          PACKAGE NAME    
     ------------------                 ------------------------                     ----------------

           IN:                                      IN:
           ---                                      ---
     STORAGE-AQUEOUS =          18.9429       STORAGE-AQUEOUS =           2.0475     MST                              
                 RIV =           0.0000                   RIV =           0.0000     SSM_RIV-1                        
                 CHD =           0.0000                   CHD =           0.0000     SSM_CHD-1                        
                 CNC =           7.8928                   CNC =           0.8526     CNC_0                            

            TOTAL IN =          26.8357              TOTAL IN =           2.9000

          OUT:                                     OUT:
          ----                                     ----
     STORAGE-AQUEOUS =           8.3044       STORAGE-AQUEOUS =           0.8966     MST                              
                 RIV =           0.0000                   RIV =           0.0000     SSM_RIV-1                        
                 CHD =          17.8150                   CHD =           1.9260     SSM_CHD-1                        
                 CNC =           0.7163                   CNC =       7.7430E-02     CNC_0                            

           TOTAL OUT =          26.8357             TOTAL OUT =           2.9000

            IN - OUT =       2.8767E-09              IN - OUT =       1.2437E-09

 PERCENT DISCREPANCY =           0.00     PERCENT DISCREPANCY =           0.00




         TIME SUMMARY AT END OF TIME STEP   99 IN STRESS PERIOD    2
                    SECONDS     MINUTES      HOURS       DAYS        YEARS
                    -----------------------------------------------------------
   TIME STEP LENGTH  7200.0      120.00      2.0000     8.33333E-02 2.28154E-04
 STRESS PERIOD TIME 7.12800E+05  11880.      198.00      8.2500     2.25873E-02
         TOTAL TIME 7.99200E+05  13320.      222.00      9.2500     2.53251E-02


end timestep


start timestep kper="2" kstp="100" mode="normal"

 UBDSV1 SAVING  STORAGE-AQUEOUS ON UNIT   1029 AT TIME STEP    100, STRESS PERIOD      2
 UBDSV1 SAVING     FLOW-JA-FACE ON UNIT   1029 AT TIME STEP    100, STRESS PERIOD      2
 UBDSV06 SAVING  SOURCE-SINK MIX IN MODEL GWT_RIVERBASE    PACKAGE GWT_RIVERBASE   CONNECTED TO MODEL GWT_RIVERBASE    PACKAGE SSM              ON UNIT   1029 AT TIME STEP    100, STRESS PERIOD      2
 UBDSV06 SAVING              CNC IN MODEL GWT_RIVERBASE    PACKAGE GWT_RIVERBASE   CONNECTED TO MODEL GWT_RIVERBASE    PACKAGE CNC_0            ON UNIT   1029 AT TIME STEP    100, STRESS PERIOD      2
1
  CONCENTRATION IN LAYER   1 AT END OF TIME STEP 100 IN STRESS PERIOD    2
  ---------------------------------------------------------------------------

                1               2               3               4               5               6               7               8               9              10
 ................................................................................................................................................................
   1      1.00000         1.00000         1.00000         1.00000         1.00000         1.00000         1.00000         1.00000         1.00000         1.00000    
   2     0.999980         1.00000        0.999980         1.00000         1.00000         1.00000         1.00000         1.00000         1.00000         1.00000    
   3      1.00000        0.999979         1.00000         1.00000         1.00000         1.00000         1.00000         1.00000         1.00000         1.00000    
   4      1.00000         1.00000        0.999979         1.00000         1.00000         1.00000         1.00000         1.00000         1.00000         1.00000    
   5      1.00000         1.00002         1.00000        0.999978        0.999977         1.00000         1.00000         1.00000         1.00000         1.00000    
   6      1.00003         10.0000         1.00000        0.999978         1.00000        0.999977         1.00000         1.00000         1.00000         1.00000    
   7      1.00002         10.0000         1.00000         1.00000         1.00000         1.00000        0.999976         1.00000         1.00000         1.00000    
   8      1.00000         1.00002         1.00000         1.00000         1.00000         1.00000         1.00000        0.999975        0.999974         1.00000    
   9      1.00000         1.00000         1.00000         1.00000         1.00000         1.00000         1.00000        0.999975         1.00000         1.00000    
  10      1.00000         1.00000         1.00000         1.00000         1.00000         1.00000         1.00000         1.00000         1.00000         1.00000    
  11      1.00000         1.00000         1.00000         1.00000         1.00000         1.00000         1.00000         1.00000         1.00000         1.00000    
  12      1.00000         1.00000         1.00000         1.00000         1.00000         1.00000         1.00000         1.00000         1.00000         1.00000    
  13      1.00000         1.00000         1.00000         1.00000         1.00000         1.00000         1.00000         1.00000         1.00000         1.00000    
  14      1.00000         1.00000         1.00000         1.00000         1.00000         1.00000         1.00000         1.00000         1.00000         1.00000    
  15      1.00000         1.00000         1.00000         1.00000         1.00000         1.00000         1.00000         1.00000         1.00000         1.00000    
1
  CONCENTRATION IN LAYER   2 AT END OF TIME STEP 100 IN STRESS PERIOD    2
  ---------------------------------------------------------------------------

                1               2               3               4               5               6               7               8               9              10
 ................................................................................................................................................................
   1      1.00000         1.00000         1.00000         1.00000         1.00000         1.00000         1.00000         1.00000         1.00000         1.00000    
   2      1.00000         1.00000         1.00000         1.00000         1.00000         1.00000         1.00000         1.00000         1.00000         1.00000    
   3      1.00000         1.00000         1.00000         1.00000         1.00000         1.00000         1.00000         1.00000         1.00000         1.00000    
   4      1.00000         1.00000         1.00000         1.00000         1.00000         1.00000         1.00000         1.00000         1.00000         1.00000    
   5      1.00000         1.00000         1.00000         1.00000         1.00000         1.00000         1.00000         1.00000         1.00000         1.00000    
   6      1.00000         1.00001         1.00000         1.00000         1.00000         1.00000         1.00000         1.00000         1.00000         1.00000    
   7      1.00000         1.00000         1.00000         1.00000         1.00000         1.00000         1.00000         1.00000         1.00000         1.00000    
   8      1.00000         1.00000         1.00000         1.00000         1.00000         1.00000         1.00000         1.00000         1.00000         1.00000    
   9      1.00000         1.00000         1.00000         1.00000         1.00000         1.00000         1.00000         1.00000         1.00000         1.00000    
  10      1.00000         1.00000         1.00000         1.00000         1.00000         1.00000         1.00000         1.00000         1.00000         1.00000    
  11      1.00000         1.00000         1.00000         1.00000         1.00000         1.00000         1.00000         1.00000         1.00000         1.00000    
  12      1.00000         1.00000         1.00000         1.00000         1.00000         1.00000         1.00000         1.00000         1.00000         1.00000    
  13      1.00000         1.00000         1.00000         1.00000         1.00000         1.00000         1.00000         1.00000         1.00000         1.00000    
  14      1.00000         1.00000         1.00000         1.00000         1.00000         1.00000         1.00000         1.00000         1.00000         1.00000    
  15      1.00000         1.00000         1.00000         1.00000         1.00000         1.00000         1.00000         1.00000         1.00000         1.00000    
1
  CONCENTRATION IN LAYER   3 AT END OF TIME STEP 100 IN STRESS PERIOD    2
  ---------------------------------------------------------------------------

                1               2               3               4               5               6               7               8               9              10
 ................................................................................................................................................................
   1      1.00000         1.00000         1.00000         1.00000         1.00000         1.00000         1.00000         1.00000         1.00000         1.00000    
   2      1.00000         1.00000         1.00000         1.00000         1.00000         1.00000         1.00000         1.00000         1.00000         1.00000    
   3      1.00000         1.00000         1.00000         1.00000         1.00000         1.00000         1.00000         1.00000         1.00000         1.00000    
   4      1.00000         1.00000         1.00000         1.00000         1.00000         1.00000         1.00000         1.00000         1.00000         1.00000    
   5      1.00000         1.00000         1.00000         1.00000         1.00000         1.00000         1.00000         1.00000         1.00000         1.00000    
   6      1.00000         1.00000         1.00000         1.00000         1.00000         1.00000         1.00000         1.00000         1.00000         1.00000    
   7      1.00000         1.00000         1.00000         1.00000         1.00000         1.00000         1.00000         1.00000         1.00000         1.00000    
   8      1.00000         1.00000         1.00000         1.00000         1.00000         1.00000         1.00000         1.00000         1.00000         1.00000    
   9      1.00000         1.00000         1.00000         1.00000         1.00000         1.00000         1.00000         1.00000         1.00000         1.00000    
  10      1.00000         1.00000         1.00000         1.00000         1.00000         1.00000         1.00000         1.00000         1.00000         1.00000    
  11      1.00000         1.00000         1.00000         1.00000         1.00000         1.00000         1.00000         1.00000         1.00000         1.00000    
  12      1.00000         1.00000         1.00000         1.00000         1.00000         1.00000         1.00000         1.00000         1.00000         1.00000    
  13      1.00000         1.00000         1.00000         1.00000         1.00000         1.00000         1.00000         1.00000         1.00000         1.00000    
  14      1.00000         1.00000         1.00000         1.00000         1.00000         1.00000         1.00000         1.00000         1.00000         1.00000    
  15      1.00000         1.00000         1.00000         1.00000         1.00000         1.00000         1.00000         1.00000         1.00000         1.00000    

 CONCENTRATION WILL BE SAVED ON UNIT 1030 AT END OF TIME STEP  100, STRESS PERIOD    2


  MASS BUDGET FOR ENTIRE MODEL AT END OF TIME STEP  100, STRESS PERIOD   2
  ---------------------------------------------------------------------------------------------------

     CUMULATIVE MASS      M       RATES FOR THIS TIME STEP      M/T          PACKAGE NAME    
     ------------------                 ------------------------                     ----------------

           IN:                                      IN:
           ---                                      ---
     STORAGE-AQUEOUS =          19.1135       STORAGE-AQUEOUS =           2.0474     MST                              
                 RIV =           0.0000                   RIV =           0.0000     SSM_RIV-1                        
                 CHD =           0.0000                   CHD =           0.0000     SSM_CHD-1                        
                 CNC =           7.9638                   CNC =           0.8526     CNC_0                            

            TOTAL IN =          27.0773              TOTAL IN =           2.9000

          OUT:                                     OUT:
          ----                                     ----
     STORAGE-AQUEOUS =           8.3792       STORAGE-AQUEOUS =           0.8966     MST                              
                 RIV =           0.0000                   RIV =           0.0000     SSM_RIV-1                        
                 CHD =          17.9755                   CHD =           1.9260     SSM_CHD-1                        
                 CNC =           0.7227                   CNC =       7.7429E-02     CNC_0                            

           TOTAL OUT =          27.0773             TOTAL OUT =           2.9000

            IN - OUT =       2.7249E-09              IN - OUT =      -1.8214E-09

 PERCENT DISCREPANCY =           0.00     PERCENT DISCREPANCY =          -0.00




         TIME SUMMARY AT END OF TIME STEP  100 IN STRESS PERIOD    2
                    SECONDS     MINUTES      HOURS       DAYS        YEARS
                    -----------------------------------------------------------
   TIME STEP LENGTH  7200.0      120.00      2.0000     8.33333E-02 2.28154E-04
 STRESS PERIOD TIME 7.20000E+05  12000.      200.00      8.3333     2.28154E-02
         TOTAL TIME 8.06400E+05  13440.      224.00      9.3333     2.55533E-02


end timestep


start timestep kper="2" kstp="101" mode="normal"

 UBDSV1 SAVING  STORAGE-AQUEOUS ON UNIT   1029 AT TIME STEP    101, STRESS PERIOD      2
 UBDSV1 SAVING     FLOW-JA-FACE ON UNIT   1029 AT TIME STEP    101, STRESS PERIOD      2
 UBDSV06 SAVING  SOURCE-SINK MIX IN MODEL GWT_RIVERBASE    PACKAGE GWT_RIVERBASE   CONNECTED TO MODEL GWT_RIVERBASE    PACKAGE SSM              ON UNIT   1029 AT TIME STEP    101, STRESS PERIOD      2
 UBDSV06 SAVING              CNC IN MODEL GWT_RIVERBASE    PACKAGE GWT_RIVERBASE   CONNECTED TO MODEL GWT_RIVERBASE    PACKAGE CNC_0            ON UNIT   1029 AT TIME STEP    101, STRESS PERIOD      2
1
  CONCENTRATION IN LAYER   1 AT END OF TIME STEP 101 IN STRESS PERIOD    2
  ---------------------------------------------------------------------------

                1               2               3               4               5               6               7               8               9              10
 ................................................................................................................................................................
   1      1.00000         1.00000         1.00000         1.00000         1.00000         1.00000         1.00000         1.00000         1.00000         1.00000    
   2     0.999980         1.00000        0.999980         1.00000         1.00000         1.00000         1.00000         1.00000         1.00000         1.00000    
   3      1.00000        0.999979         1.00000         1.00000         1.00000         1.00000         1.00000         1.00000         1.00000         1.00000    
   4      1.00000         1.00000        0.999979         1.00000         1.00000         1.00000         1.00000         1.00000         1.00000         1.00000    
   5      1.00000         1.00002         1.00000        0.999978        0.999977         1.00000         1.00000         1.00000         1.00000         1.00000    
   6      1.00003         10.0000         1.00000        0.999978         1.00000        0.999976         1.00000         1.00000         1.00000         1.00000    
   7      1.00002         10.0000         1.00000         1.00000         1.00000         1.00000        0.999976         1.00000         1.00000         1.00000    
   8      1.00000         1.00002         1.00000         1.00000         1.00000         1.00000         1.00000        0.999975        0.999974         1.00000    
   9      1.00000         1.00000         1.00000         1.00000         1.00000         1.00000         1.00000        0.999974         1.00000         1.00000    
  10      1.00000         1.00000         1.00000         1.00000         1.00000         1.00000         1.00000         1.00000         1.00000         1.00000    
  11      1.00000         1.00000         1.00000         1.00000         1.00000         1.00000         1.00000         1.00000         1.00000         1.00000    
  12      1.00000         1.00000         1.00000         1.00000         1.00000         1.00000         1.00000         1.00000         1.00000         1.00000    
  13      1.00000         1.00000         1.00000         1.00000         1.00000         1.00000         1.00000         1.00000         1.00000         1.00000    
  14      1.00000         1.00000         1.00000         1.00000         1.00000         1.00000         1.00000         1.00000         1.00000         1.00000    
  15      1.00000         1.00000         1.00000         1.00000         1.00000         1.00000         1.00000         1.00000         1.00000         1.00000    
1
  CONCENTRATION IN LAYER   2 AT END OF TIME STEP 101 IN STRESS PERIOD    2
  ---------------------------------------------------------------------------

                1               2               3               4               5               6               7               8               9              10
 ................................................................................................................................................................
   1      1.00000         1.00000         1.00000         1.00000         1.00000         1.00000         1.00000         1.00000         1.00000         1.00000    
   2      1.00000         1.00000         1.00000         1.00000         1.00000         1.00000         1.00000         1.00000         1.00000         1.00000    
   3      1.00000         1.00000         1.00000         1.00000         1.00000         1.00000         1.00000         1.00000         1.00000         1.00000    
   4      1.00000         1.00000         1.00000         1.00000         1.00000         1.00000         1.00000         1.00000         1.00000         1.00000    
   5      1.00000         1.00000         1.00000         1.00000         1.00000         1.00000         1.00000         1.00000         1.00000         1.00000    
   6      1.00000         1.00001         1.00000         1.00000         1.00000         1.00000         1.00000         1.00000         1.00000         1.00000    
   7      1.00000         1.00000         1.00000         1.00000         1.00000         1.00000         1.00000         1.00000         1.00000         1.00000    
   8      1.00000         1.00000         1.00000         1.00000         1.00000         1.00000         1.00000         1.00000         1.00000         1.00000    
   9      1.00000         1.00000         1.00000         1.00000         1.00000         1.00000         1.00000         1.00000         1.00000         1.00000    
  10      1.00000         1.00000         1.00000         1.00000         1.00000         1.00000         1.00000         1.00000         1.00000         1.00000    
  11      1.00000         1.00000         1.00000         1.00000         1.00000         1.00000         1.00000         1.00000         1.00000         1.00000    
  12      1.00000         1.00000         1.00000         1.00000         1.00000         1.00000         1.00000         1.00000         1.00000         1.00000    
  13      1.00000         1.00000         1.00000         1.00000         1.00000         1.00000         1.00000         1.00000         1.00000         1.00000    
  14      1.00000         1.00000         1.00000         1.00000         1.00000         1.00000         1.00000         1.00000         1.00000         1.00000    
  15      1.00000         1.00000         1.00000         1.00000         1.00000         1.00000         1.00000         1.00000         1.00000         1.00000    
1
  CONCENTRATION IN LAYER   3 AT END OF TIME STEP 101 IN STRESS PERIOD    2
  ---------------------------------------------------------------------------

                1               2               3               4               5               6               7               8               9              10
 ................................................................................................................................................................
   1      1.00000         1.00000         1.00000         1.00000         1.00000         1.00000         1.00000         1.00000         1.00000         1.00000    
   2      1.00000         1.00000         1.00000         1.00000         1.00000         1.00000         1.00000         1.00000         1.00000         1.00000    
   3      1.00000         1.00000         1.00000         1.00000         1.00000         1.00000         1.00000         1.00000         1.00000         1.00000    
   4      1.00000         1.00000         1.00000         1.00000         1.00000         1.00000         1.00000         1.00000         1.00000         1.00000    
   5      1.00000         1.00000         1.00000         1.00000         1.00000         1.00000         1.00000         1.00000         1.00000         1.00000    
   6      1.00000         1.00000         1.00000         1.00000         1.00000         1.00000         1.00000         1.00000         1.00000         1.00000    
   7      1.00000         1.00000         1.00000         1.00000         1.00000         1.00000         1.00000         1.00000         1.00000         1.00000    
   8      1.00000         1.00000         1.00000         1.00000         1.00000         1.00000         1.00000         1.00000         1.00000         1.00000    
   9      1.00000         1.00000         1.00000         1.00000         1.00000         1.00000         1.00000         1.00000         1.00000         1.00000    
  10      1.00000         1.00000         1.00000         1.00000         1.00000         1.00000         1.00000         1.00000         1.00000         1.00000    
  11      1.00000         1.00000         1.00000         1.00000         1.00000         1.00000         1.00000         1.00000         1.00000         1.00000    
  12      1.00000         1.00000         1.00000         1.00000         1.00000         1.00000         1.00000         1.00000         1.00000         1.00000    
  13      1.00000         1.00000         1.00000         1.00000         1.00000         1.00000         1.00000         1.00000         1.00000         1.00000    
  14      1.00000         1.00000         1.00000         1.00000         1.00000         1.00000         1.00000         1.00000         1.00000         1.00000    
  15      1.00000         1.00000         1.00000         1.00000         1.00000         1.00000         1.00000         1.00000         1.00000         1.00000    

 CONCENTRATION WILL BE SAVED ON UNIT 1030 AT END OF TIME STEP  101, STRESS PERIOD    2


  MASS BUDGET FOR ENTIRE MODEL AT END OF TIME STEP  101, STRESS PERIOD   2
  ---------------------------------------------------------------------------------------------------

     CUMULATIVE MASS      M       RATES FOR THIS TIME STEP      M/T          PACKAGE NAME    
     ------------------                 ------------------------                     ----------------

           IN:                                      IN:
           ---                                      ---
     STORAGE-AQUEOUS =          19.2841       STORAGE-AQUEOUS =           2.0474     MST                              
                 RIV =           0.0000                   RIV =           0.0000     SSM_RIV-1                        
                 CHD =           0.0000                   CHD =           0.0000     SSM_CHD-1                        
                 CNC =           8.0349                   CNC =           0.8526     CNC_0                            

            TOTAL IN =          27.3190              TOTAL IN =           2.9000

          OUT:                                     OUT:
          ----                                     ----
     STORAGE-AQUEOUS =           8.4539       STORAGE-AQUEOUS =           0.8966     MST                              
                 RIV =           0.0000                   RIV =           0.0000     SSM_RIV-1                        
                 CHD =          18.1360                   CHD =           1.9260     SSM_CHD-1                        
                 CNC =           0.7292                   CNC =       7.7429E-02     CNC_0                            

           TOTAL OUT =          27.3190             TOTAL OUT =           2.9000

            IN - OUT =       2.9107E-09              IN - OUT =       2.2289E-09

 PERCENT DISCREPANCY =           0.00     PERCENT DISCREPANCY =           0.00




         TIME SUMMARY AT END OF TIME STEP  101 IN STRESS PERIOD    2
                    SECONDS     MINUTES      HOURS       DAYS        YEARS
                    -----------------------------------------------------------
   TIME STEP LENGTH  7200.0      120.00      2.0000     8.33333E-02 2.28154E-04
 STRESS PERIOD TIME 7.27200E+05  12120.      202.00      8.4167     2.30436E-02
         TOTAL TIME 8.13600E+05  13560.      226.00      9.4167     2.57814E-02


end timestep


start timestep kper="2" kstp="102" mode="normal"

 UBDSV1 SAVING  STORAGE-AQUEOUS ON UNIT   1029 AT TIME STEP    102, STRESS PERIOD      2
 UBDSV1 SAVING     FLOW-JA-FACE ON UNIT   1029 AT TIME STEP    102, STRESS PERIOD      2
 UBDSV06 SAVING  SOURCE-SINK MIX IN MODEL GWT_RIVERBASE    PACKAGE GWT_RIVERBASE   CONNECTED TO MODEL GWT_RIVERBASE    PACKAGE SSM              ON UNIT   1029 AT TIME STEP    102, STRESS PERIOD      2
 UBDSV06 SAVING              CNC IN MODEL GWT_RIVERBASE    PACKAGE GWT_RIVERBASE   CONNECTED TO MODEL GWT_RIVERBASE    PACKAGE CNC_0            ON UNIT   1029 AT TIME STEP    102, STRESS PERIOD      2
1
  CONCENTRATION IN LAYER   1 AT END OF TIME STEP 102 IN STRESS PERIOD    2
  ---------------------------------------------------------------------------

                1               2               3               4               5               6               7               8               9              10
 ................................................................................................................................................................
   1      1.00000         1.00000         1.00000         1.00000         1.00000         1.00000         1.00000         1.00000         1.00000         1.00000    
   2     0.999980         1.00000        0.999980         1.00000         1.00000         1.00000         1.00000         1.00000         1.00000         1.00000    
   3      1.00000        0.999979         1.00000         1.00000         1.00000         1.00000         1.00000         1.00000         1.00000         1.00000    
   4      1.00000         1.00000        0.999979         1.00000         1.00000         1.00000         1.00000         1.00000         1.00000         1.00000    
   5      1.00000         1.00003         1.00000        0.999978        0.999977         1.00000         1.00000         1.00000         1.00000         1.00000    
   6      1.00003         10.0000         1.00000        0.999977         1.00000        0.999976         1.00000         1.00000         1.00000         1.00000    
   7      1.00002         10.0000         1.00000         1.00000         1.00000         1.00000        0.999976         1.00000         1.00000         1.00000    
   8      1.00000         1.00002         1.00000         1.00000         1.00000         1.00000         1.00000        0.999975        0.999974         1.00000    
   9      1.00000         1.00000         1.00000         1.00000         1.00000         1.00000         1.00000        0.999974         1.00000         1.00000    
  10      1.00000         1.00000         1.00000         1.00000         1.00000         1.00000         1.00000         1.00000         1.00000         1.00000    
  11      1.00000         1.00000         1.00000         1.00000         1.00000         1.00000         1.00000         1.00000         1.00000         1.00000    
  12      1.00000         1.00000         1.00000         1.00000         1.00000         1.00000         1.00000         1.00000         1.00000         1.00000    
  13      1.00000         1.00000         1.00000         1.00000         1.00000         1.00000         1.00000         1.00000         1.00000         1.00000    
  14      1.00000         1.00000         1.00000         1.00000         1.00000         1.00000         1.00000         1.00000         1.00000         1.00000    
  15      1.00000         1.00000         1.00000         1.00000         1.00000         1.00000         1.00000         1.00000         1.00000         1.00000    
1
  CONCENTRATION IN LAYER   2 AT END OF TIME STEP 102 IN STRESS PERIOD    2
  ---------------------------------------------------------------------------

                1               2               3               4               5               6               7               8               9              10
 ................................................................................................................................................................
   1      1.00000         1.00000         1.00000         1.00000         1.00000         1.00000         1.00000         1.00000         1.00000         1.00000    
   2      1.00000         1.00000         1.00000         1.00000         1.00000         1.00000         1.00000         1.00000         1.00000         1.00000    
   3      1.00000         1.00000         1.00000         1.00000         1.00000         1.00000         1.00000         1.00000         1.00000         1.00000    
   4      1.00000         1.00000         1.00000         1.00000         1.00000         1.00000         1.00000         1.00000         1.00000         1.00000    
   5      1.00000         1.00000         1.00000         1.00000         1.00000         1.00000         1.00000         1.00000         1.00000         1.00000    
   6      1.00000         1.00001         1.00000         1.00000         1.00000         1.00000         1.00000         1.00000         1.00000         1.00000    
   7      1.00000         1.00000         1.00000         1.00000         1.00000         1.00000         1.00000         1.00000         1.00000         1.00000    
   8      1.00000         1.00000         1.00000         1.00000         1.00000         1.00000         1.00000         1.00000         1.00000         1.00000    
   9      1.00000         1.00000         1.00000         1.00000         1.00000         1.00000         1.00000         1.00000         1.00000         1.00000    
  10      1.00000         1.00000         1.00000         1.00000         1.00000         1.00000         1.00000         1.00000         1.00000         1.00000    
  11      1.00000         1.00000         1.00000         1.00000         1.00000         1.00000         1.00000         1.00000         1.00000         1.00000    
  12      1.00000         1.00000         1.00000         1.00000         1.00000         1.00000         1.00000         1.00000         1.00000         1.00000    
  13      1.00000         1.00000         1.00000         1.00000         1.00000         1.00000         1.00000         1.00000         1.00000         1.00000    
  14      1.00000         1.00000         1.00000         1.00000         1.00000         1.00000         1.00000         1.00000         1.00000         1.00000    
  15      1.00000         1.00000         1.00000         1.00000         1.00000         1.00000         1.00000         1.00000         1.00000         1.00000    
1
  CONCENTRATION IN LAYER   3 AT END OF TIME STEP 102 IN STRESS PERIOD    2
  ---------------------------------------------------------------------------

                1               2               3               4               5               6               7               8               9              10
 ................................................................................................................................................................
   1      1.00000         1.00000         1.00000         1.00000         1.00000         1.00000         1.00000         1.00000         1.00000         1.00000    
   2      1.00000         1.00000         1.00000         1.00000         1.00000         1.00000         1.00000         1.00000         1.00000         1.00000    
   3      1.00000         1.00000         1.00000         1.00000         1.00000         1.00000         1.00000         1.00000         1.00000         1.00000    
   4      1.00000         1.00000         1.00000         1.00000         1.00000         1.00000         1.00000         1.00000         1.00000         1.00000    
   5      1.00000         1.00000         1.00000         1.00000         1.00000         1.00000         1.00000         1.00000         1.00000         1.00000    
   6      1.00000         1.00000         1.00000         1.00000         1.00000         1.00000         1.00000         1.00000         1.00000         1.00000    
   7      1.00000         1.00000         1.00000         1.00000         1.00000         1.00000         1.00000         1.00000         1.00000         1.00000    
   8      1.00000         1.00000         1.00000         1.00000         1.00000         1.00000         1.00000         1.00000         1.00000         1.00000    
   9      1.00000         1.00000         1.00000         1.00000         1.00000         1.00000         1.00000         1.00000         1.00000         1.00000    
  10      1.00000         1.00000         1.00000         1.00000         1.00000         1.00000         1.00000         1.00000         1.00000         1.00000    
  11      1.00000         1.00000         1.00000         1.00000         1.00000         1.00000         1.00000         1.00000         1.00000         1.00000    
  12      1.00000         1.00000         1.00000         1.00000         1.00000         1.00000         1.00000         1.00000         1.00000         1.00000    
  13      1.00000         1.00000         1.00000         1.00000         1.00000         1.00000         1.00000         1.00000         1.00000         1.00000    
  14      1.00000         1.00000         1.00000         1.00000         1.00000         1.00000         1.00000         1.00000         1.00000         1.00000    
  15      1.00000         1.00000         1.00000         1.00000         1.00000         1.00000         1.00000         1.00000         1.00000         1.00000    

 CONCENTRATION WILL BE SAVED ON UNIT 1030 AT END OF TIME STEP  102, STRESS PERIOD    2


  MASS BUDGET FOR ENTIRE MODEL AT END OF TIME STEP  102, STRESS PERIOD   2
  ---------------------------------------------------------------------------------------------------

     CUMULATIVE MASS      M       RATES FOR THIS TIME STEP      M/T          PACKAGE NAME    
     ------------------                 ------------------------                     ----------------

           IN:                                      IN:
           ---                                      ---
     STORAGE-AQUEOUS =          19.4548       STORAGE-AQUEOUS =           2.0474     MST                              
                 RIV =           0.0000                   RIV =           0.0000     SSM_RIV-1                        
                 CHD =           0.0000                   CHD =           0.0000     SSM_CHD-1                        
                 CNC =           8.1059                   CNC =           0.8526     CNC_0                            

            TOTAL IN =          27.5607              TOTAL IN =           2.9000

          OUT:                                     OUT:
          ----                                     ----
     STORAGE-AQUEOUS =           8.5286       STORAGE-AQUEOUS =           0.8966     MST                              
                 RIV =           0.0000                   RIV =           0.0000     SSM_RIV-1                        
                 CHD =          18.2965                   CHD =           1.9260     SSM_CHD-1                        
                 CNC =           0.7356                   CNC =       7.7429E-02     CNC_0                            

           TOTAL OUT =          27.5607             TOTAL OUT =           2.9000

            IN - OUT =       3.1056E-09              IN - OUT =       2.3392E-09

 PERCENT DISCREPANCY =           0.00     PERCENT DISCREPANCY =           0.00




         TIME SUMMARY AT END OF TIME STEP  102 IN STRESS PERIOD    2
                    SECONDS     MINUTES      HOURS       DAYS        YEARS
                    -----------------------------------------------------------
   TIME STEP LENGTH  7200.0      120.00      2.0000     8.33333E-02 2.28154E-04
 STRESS PERIOD TIME 7.34400E+05  12240.      204.00      8.5000     2.32717E-02
         TOTAL TIME 8.20800E+05  13680.      228.00      9.5000     2.60096E-02


end timestep


start timestep kper="2" kstp="103" mode="normal"

 UBDSV1 SAVING  STORAGE-AQUEOUS ON UNIT   1029 AT TIME STEP    103, STRESS PERIOD      2
 UBDSV1 SAVING     FLOW-JA-FACE ON UNIT   1029 AT TIME STEP    103, STRESS PERIOD      2
 UBDSV06 SAVING  SOURCE-SINK MIX IN MODEL GWT_RIVERBASE    PACKAGE GWT_RIVERBASE   CONNECTED TO MODEL GWT_RIVERBASE    PACKAGE SSM              ON UNIT   1029 AT TIME STEP    103, STRESS PERIOD      2
 UBDSV06 SAVING              CNC IN MODEL GWT_RIVERBASE    PACKAGE GWT_RIVERBASE   CONNECTED TO MODEL GWT_RIVERBASE    PACKAGE CNC_0            ON UNIT   1029 AT TIME STEP    103, STRESS PERIOD      2
1
  CONCENTRATION IN LAYER   1 AT END OF TIME STEP 103 IN STRESS PERIOD    2
  ---------------------------------------------------------------------------

                1               2               3               4               5               6               7               8               9              10
 ................................................................................................................................................................
   1      1.00000         1.00000         1.00000         1.00000         1.00000         1.00000         1.00000         1.00000         1.00000         1.00000    
   2     0.999980         1.00000        0.999979         1.00000         1.00000         1.00000         1.00000         1.00000         1.00000         1.00000    
   3      1.00000        0.999979         1.00000         1.00000         1.00000         1.00000         1.00000         1.00000         1.00000         1.00000    
   4      1.00000         1.00000        0.999978         1.00000         1.00000         1.00000         1.00000         1.00000         1.00000         1.00000    
   5      1.00000         1.00003         1.00000        0.999978        0.999977         1.00000         1.00000         1.00000         1.00000         1.00000    
   6      1.00003         10.0000         1.00000        0.999977         1.00000        0.999976         1.00000         1.00000         1.00000         1.00000    
   7      1.00002         10.0000         1.00000         1.00000         1.00000         1.00000        0.999975         1.00000         1.00000         1.00000    
   8      1.00000         1.00002         1.00000         1.00000         1.00000         1.00000         1.00000        0.999975        0.999973         1.00000    
   9      1.00000         1.00000         1.00000         1.00000         1.00000         1.00000         1.00000        0.999974         1.00000         1.00000    
  10      1.00000         1.00000         1.00000         1.00000         1.00000         1.00000         1.00000         1.00000         1.00000         1.00000    
  11      1.00000         1.00000         1.00000         1.00000         1.00000         1.00000         1.00000         1.00000         1.00000         1.00000    
  12      1.00000         1.00000         1.00000         1.00000         1.00000         1.00000         1.00000         1.00000         1.00000         1.00000    
  13      1.00000         1.00000         1.00000         1.00000         1.00000         1.00000         1.00000         1.00000         1.00000         1.00000    
  14      1.00000         1.00000         1.00000         1.00000         1.00000         1.00000         1.00000         1.00000         1.00000         1.00000    
  15      1.00000         1.00000         1.00000         1.00000         1.00000         1.00000         1.00000         1.00000         1.00000         1.00000    
1
  CONCENTRATION IN LAYER   2 AT END OF TIME STEP 103 IN STRESS PERIOD    2
  ---------------------------------------------------------------------------

                1               2               3               4               5               6               7               8               9              10
 ................................................................................................................................................................
   1      1.00000         1.00000         1.00000         1.00000         1.00000         1.00000         1.00000         1.00000         1.00000         1.00000    
   2      1.00000         1.00000         1.00000         1.00000         1.00000         1.00000         1.00000         1.00000         1.00000         1.00000    
   3      1.00000         1.00000         1.00000         1.00000         1.00000         1.00000         1.00000         1.00000         1.00000         1.00000    
   4      1.00000         1.00000         1.00000         1.00000         1.00000         1.00000         1.00000         1.00000         1.00000         1.00000    
   5      1.00000         1.00000         1.00000         1.00000         1.00000         1.00000         1.00000         1.00000         1.00000         1.00000    
   6      1.00000         1.00001         1.00000         1.00000         1.00000         1.00000         1.00000         1.00000         1.00000         1.00000    
   7      1.00000         1.00000         1.00000         1.00000         1.00000         1.00000         1.00000         1.00000         1.00000         1.00000    
   8      1.00000         1.00000         1.00000         1.00000         1.00000         1.00000         1.00000         1.00000         1.00000         1.00000    
   9      1.00000         1.00000         1.00000         1.00000         1.00000         1.00000         1.00000         1.00000         1.00000         1.00000    
  10      1.00000         1.00000         1.00000         1.00000         1.00000         1.00000         1.00000         1.00000         1.00000         1.00000    
  11      1.00000         1.00000         1.00000         1.00000         1.00000         1.00000         1.00000         1.00000         1.00000         1.00000    
  12      1.00000         1.00000         1.00000         1.00000         1.00000         1.00000         1.00000         1.00000         1.00000         1.00000    
  13      1.00000         1.00000         1.00000         1.00000         1.00000         1.00000         1.00000         1.00000         1.00000         1.00000    
  14      1.00000         1.00000         1.00000         1.00000         1.00000         1.00000         1.00000         1.00000         1.00000         1.00000    
  15      1.00000         1.00000         1.00000         1.00000         1.00000         1.00000         1.00000         1.00000         1.00000         1.00000    
1
  CONCENTRATION IN LAYER   3 AT END OF TIME STEP 103 IN STRESS PERIOD    2
  ---------------------------------------------------------------------------

                1               2               3               4               5               6               7               8               9              10
 ................................................................................................................................................................
   1      1.00000         1.00000         1.00000         1.00000         1.00000         1.00000         1.00000         1.00000         1.00000         1.00000    
   2      1.00000         1.00000         1.00000         1.00000         1.00000         1.00000         1.00000         1.00000         1.00000         1.00000    
   3      1.00000         1.00000         1.00000         1.00000         1.00000         1.00000         1.00000         1.00000         1.00000         1.00000    
   4      1.00000         1.00000         1.00000         1.00000         1.00000         1.00000         1.00000         1.00000         1.00000         1.00000    
   5      1.00000         1.00000         1.00000         1.00000         1.00000         1.00000         1.00000         1.00000         1.00000         1.00000    
   6      1.00000         1.00000         1.00000         1.00000         1.00000         1.00000         1.00000         1.00000         1.00000         1.00000    
   7      1.00000         1.00000         1.00000         1.00000         1.00000         1.00000         1.00000         1.00000         1.00000         1.00000    
   8      1.00000         1.00000         1.00000         1.00000         1.00000         1.00000         1.00000         1.00000         1.00000         1.00000    
   9      1.00000         1.00000         1.00000         1.00000         1.00000         1.00000         1.00000         1.00000         1.00000         1.00000    
  10      1.00000         1.00000         1.00000         1.00000         1.00000         1.00000         1.00000         1.00000         1.00000         1.00000    
  11      1.00000         1.00000         1.00000         1.00000         1.00000         1.00000         1.00000         1.00000         1.00000         1.00000    
  12      1.00000         1.00000         1.00000         1.00000         1.00000         1.00000         1.00000         1.00000         1.00000         1.00000    
  13      1.00000         1.00000         1.00000         1.00000         1.00000         1.00000         1.00000         1.00000         1.00000         1.00000    
  14      1.00000         1.00000         1.00000         1.00000         1.00000         1.00000         1.00000         1.00000         1.00000         1.00000    
  15      1.00000         1.00000         1.00000         1.00000         1.00000         1.00000         1.00000         1.00000         1.00000         1.00000    

 CONCENTRATION WILL BE SAVED ON UNIT 1030 AT END OF TIME STEP  103, STRESS PERIOD    2


  MASS BUDGET FOR ENTIRE MODEL AT END OF TIME STEP  103, STRESS PERIOD   2
  ---------------------------------------------------------------------------------------------------

     CUMULATIVE MASS      M       RATES FOR THIS TIME STEP      M/T          PACKAGE NAME    
     ------------------                 ------------------------                     ----------------

           IN:                                      IN:
           ---                                      ---
     STORAGE-AQUEOUS =          19.6254       STORAGE-AQUEOUS =           2.0474     MST                              
                 RIV =           0.0000                   RIV =           0.0000     SSM_RIV-1                        
                 CHD =           0.0000                   CHD =           0.0000     SSM_CHD-1                        
                 CNC =           8.1770                   CNC =           0.8526     CNC_0                            

            TOTAL IN =          27.8024              TOTAL IN =           2.9000

          OUT:                                     OUT:
          ----                                     ----
     STORAGE-AQUEOUS =           8.6033       STORAGE-AQUEOUS =           0.8966     MST                              
                 RIV =           0.0000                   RIV =           0.0000     SSM_RIV-1                        
                 CHD =          18.4570                   CHD =           1.9260     SSM_CHD-1                        
                 CNC =           0.7421                   CNC =       7.7429E-02     CNC_0                            

           TOTAL OUT =          27.8024             TOTAL OUT =           2.9000

            IN - OUT =       2.9862E-09              IN - OUT =      -1.4320E-09

 PERCENT DISCREPANCY =           0.00     PERCENT DISCREPANCY =          -0.00




         TIME SUMMARY AT END OF TIME STEP  103 IN STRESS PERIOD    2
                    SECONDS     MINUTES      HOURS       DAYS        YEARS
                    -----------------------------------------------------------
   TIME STEP LENGTH  7200.0      120.00      2.0000     8.33333E-02 2.28154E-04
 STRESS PERIOD TIME 7.41600E+05  12360.      206.00      8.5833     2.34999E-02
         TOTAL TIME 8.28000E+05  13800.      230.00      9.5833     2.62377E-02


end timestep


start timestep kper="2" kstp="104" mode="normal"

 UBDSV1 SAVING  STORAGE-AQUEOUS ON UNIT   1029 AT TIME STEP    104, STRESS PERIOD      2
 UBDSV1 SAVING     FLOW-JA-FACE ON UNIT   1029 AT TIME STEP    104, STRESS PERIOD      2
 UBDSV06 SAVING  SOURCE-SINK MIX IN MODEL GWT_RIVERBASE    PACKAGE GWT_RIVERBASE   CONNECTED TO MODEL GWT_RIVERBASE    PACKAGE SSM              ON UNIT   1029 AT TIME STEP    104, STRESS PERIOD      2
 UBDSV06 SAVING              CNC IN MODEL GWT_RIVERBASE    PACKAGE GWT_RIVERBASE   CONNECTED TO MODEL GWT_RIVERBASE    PACKAGE CNC_0            ON UNIT   1029 AT TIME STEP    104, STRESS PERIOD      2
1
  CONCENTRATION IN LAYER   1 AT END OF TIME STEP 104 IN STRESS PERIOD    2
  ---------------------------------------------------------------------------

                1               2               3               4               5               6               7               8               9              10
 ................................................................................................................................................................
   1      1.00000         1.00000         1.00000         1.00000         1.00000         1.00000         1.00000         1.00000         1.00000         1.00000    
   2     0.999980         1.00000        0.999979         1.00000         1.00000         1.00000         1.00000         1.00000         1.00000         1.00000    
   3      1.00000        0.999979         1.00000         1.00000         1.00000         1.00000         1.00000         1.00000         1.00000         1.00000    
   4      1.00000         1.00000        0.999978         1.00000         1.00000         1.00000         1.00000         1.00000         1.00000         1.00000    
   5      1.00000         1.00003         1.00000        0.999978        0.999976         1.00000         1.00000         1.00000         1.00000         1.00000    
   6      1.00003         10.0000         1.00000        0.999977         1.00000        0.999976         1.00000         1.00000         1.00000         1.00000    
   7      1.00002         10.0000         1.00000         1.00000         1.00000         1.00000        0.999975         1.00000         1.00000         1.00000    
   8      1.00000         1.00002         1.00000         1.00000         1.00000         1.00000         1.00000        0.999974        0.999973         1.00000    
   9      1.00000         1.00000         1.00000         1.00000         1.00000         1.00000         1.00000        0.999974         1.00000         1.00000    
  10      1.00000         1.00000         1.00000         1.00000         1.00000         1.00000         1.00000         1.00000         1.00000         1.00000    
  11      1.00000         1.00000         1.00000         1.00000         1.00000         1.00000         1.00000         1.00000         1.00000         1.00000    
  12      1.00000         1.00000         1.00000         1.00000         1.00000         1.00000         1.00000         1.00000         1.00000         1.00000    
  13      1.00000         1.00000         1.00000         1.00000         1.00000         1.00000         1.00000         1.00000         1.00000         1.00000    
  14      1.00000         1.00000         1.00000         1.00000         1.00000         1.00000         1.00000         1.00000         1.00000         1.00000    
  15      1.00000         1.00000         1.00000         1.00000         1.00000         1.00000         1.00000         1.00000         1.00000         1.00000    
1
  CONCENTRATION IN LAYER   2 AT END OF TIME STEP 104 IN STRESS PERIOD    2
  ---------------------------------------------------------------------------

                1               2               3               4               5               6               7               8               9              10
 ................................................................................................................................................................
   1      1.00000         1.00000         1.00000         1.00000         1.00000         1.00000         1.00000         1.00000         1.00000         1.00000    
   2      1.00000         1.00000         1.00000         1.00000         1.00000         1.00000         1.00000         1.00000         1.00000         1.00000    
   3      1.00000         1.00000         1.00000         1.00000         1.00000         1.00000         1.00000         1.00000         1.00000         1.00000    
   4      1.00000         1.00000         1.00000         1.00000         1.00000         1.00000         1.00000         1.00000         1.00000         1.00000    
   5      1.00000         1.00000         1.00000         1.00000         1.00000         1.00000         1.00000         1.00000         1.00000         1.00000    
   6      1.00000         1.00001         1.00000         1.00000         1.00000         1.00000         1.00000         1.00000         1.00000         1.00000    
   7      1.00000         1.00000         1.00000         1.00000         1.00000         1.00000         1.00000         1.00000         1.00000         1.00000    
   8      1.00000         1.00000         1.00000         1.00000         1.00000         1.00000         1.00000         1.00000         1.00000         1.00000    
   9      1.00000         1.00000         1.00000         1.00000         1.00000         1.00000         1.00000         1.00000         1.00000         1.00000    
  10      1.00000         1.00000         1.00000         1.00000         1.00000         1.00000         1.00000         1.00000         1.00000         1.00000    
  11      1.00000         1.00000         1.00000         1.00000         1.00000         1.00000         1.00000         1.00000         1.00000         1.00000    
  12      1.00000         1.00000         1.00000         1.00000         1.00000         1.00000         1.00000         1.00000         1.00000         1.00000    
  13      1.00000         1.00000         1.00000         1.00000         1.00000         1.00000         1.00000         1.00000         1.00000         1.00000    
  14      1.00000         1.00000         1.00000         1.00000         1.00000         1.00000         1.00000         1.00000         1.00000         1.00000    
  15      1.00000         1.00000         1.00000         1.00000         1.00000         1.00000         1.00000         1.00000         1.00000         1.00000    
1
  CONCENTRATION IN LAYER   3 AT END OF TIME STEP 104 IN STRESS PERIOD    2
  ---------------------------------------------------------------------------

                1               2               3               4               5               6               7               8               9              10
 ................................................................................................................................................................
   1      1.00000         1.00000         1.00000         1.00000         1.00000         1.00000         1.00000         1.00000         1.00000         1.00000    
   2      1.00000         1.00000         1.00000         1.00000         1.00000         1.00000         1.00000         1.00000         1.00000         1.00000    
   3      1.00000         1.00000         1.00000         1.00000         1.00000         1.00000         1.00000         1.00000         1.00000         1.00000    
   4      1.00000         1.00000         1.00000         1.00000         1.00000         1.00000         1.00000         1.00000         1.00000         1.00000    
   5      1.00000         1.00000         1.00000         1.00000         1.00000         1.00000         1.00000         1.00000         1.00000         1.00000    
   6      1.00000         1.00000         1.00000         1.00000         1.00000         1.00000         1.00000         1.00000         1.00000         1.00000    
   7      1.00000         1.00000         1.00000         1.00000         1.00000         1.00000         1.00000         1.00000         1.00000         1.00000    
   8      1.00000         1.00000         1.00000         1.00000         1.00000         1.00000         1.00000         1.00000         1.00000         1.00000    
   9      1.00000         1.00000         1.00000         1.00000         1.00000         1.00000         1.00000         1.00000         1.00000         1.00000    
  10      1.00000         1.00000         1.00000         1.00000         1.00000         1.00000         1.00000         1.00000         1.00000         1.00000    
  11      1.00000         1.00000         1.00000         1.00000         1.00000         1.00000         1.00000         1.00000         1.00000         1.00000    
  12      1.00000         1.00000         1.00000         1.00000         1.00000         1.00000         1.00000         1.00000         1.00000         1.00000    
  13      1.00000         1.00000         1.00000         1.00000         1.00000         1.00000         1.00000         1.00000         1.00000         1.00000    
  14      1.00000         1.00000         1.00000         1.00000         1.00000         1.00000         1.00000         1.00000         1.00000         1.00000    
  15      1.00000         1.00000         1.00000         1.00000         1.00000         1.00000         1.00000         1.00000         1.00000         1.00000    

 CONCENTRATION WILL BE SAVED ON UNIT 1030 AT END OF TIME STEP  104, STRESS PERIOD    2


  MASS BUDGET FOR ENTIRE MODEL AT END OF TIME STEP  104, STRESS PERIOD   2
  ---------------------------------------------------------------------------------------------------

     CUMULATIVE MASS      M       RATES FOR THIS TIME STEP      M/T          PACKAGE NAME    
     ------------------                 ------------------------                     ----------------

           IN:                                      IN:
           ---                                      ---
     STORAGE-AQUEOUS =          19.7960       STORAGE-AQUEOUS =           2.0474     MST                              
                 RIV =           0.0000                   RIV =           0.0000     SSM_RIV-1                        
                 CHD =           0.0000                   CHD =           0.0000     SSM_CHD-1                        
                 CNC =           8.2480                   CNC =           0.8526     CNC_0                            

            TOTAL IN =          28.0440              TOTAL IN =           2.9001

          OUT:                                     OUT:
          ----                                     ----
     STORAGE-AQUEOUS =           8.6780       STORAGE-AQUEOUS =           0.8966     MST                              
                 RIV =           0.0000                   RIV =           0.0000     SSM_RIV-1                        
                 CHD =          18.6175                   CHD =           1.9260     SSM_CHD-1                        
                 CNC =           0.7485                   CNC =       7.7429E-02     CNC_0                            

           TOTAL OUT =          28.0440             TOTAL OUT =           2.9001

            IN - OUT =       2.9331E-09              IN - OUT =      -6.3755E-10

 PERCENT DISCREPANCY =           0.00     PERCENT DISCREPANCY =          -0.00




         TIME SUMMARY AT END OF TIME STEP  104 IN STRESS PERIOD    2
                    SECONDS     MINUTES      HOURS       DAYS        YEARS
                    -----------------------------------------------------------
   TIME STEP LENGTH  7200.0      120.00      2.0000     8.33333E-02 2.28154E-04
 STRESS PERIOD TIME 7.48800E+05  12480.      208.00      8.6667     2.37280E-02
         TOTAL TIME 8.35200E+05  13920.      232.00      9.6667     2.64659E-02


end timestep


start timestep kper="2" kstp="105" mode="normal"

 UBDSV1 SAVING  STORAGE-AQUEOUS ON UNIT   1029 AT TIME STEP    105, STRESS PERIOD      2
 UBDSV1 SAVING     FLOW-JA-FACE ON UNIT   1029 AT TIME STEP    105, STRESS PERIOD      2
 UBDSV06 SAVING  SOURCE-SINK MIX IN MODEL GWT_RIVERBASE    PACKAGE GWT_RIVERBASE   CONNECTED TO MODEL GWT_RIVERBASE    PACKAGE SSM              ON UNIT   1029 AT TIME STEP    105, STRESS PERIOD      2
 UBDSV06 SAVING              CNC IN MODEL GWT_RIVERBASE    PACKAGE GWT_RIVERBASE   CONNECTED TO MODEL GWT_RIVERBASE    PACKAGE CNC_0            ON UNIT   1029 AT TIME STEP    105, STRESS PERIOD      2
1
  CONCENTRATION IN LAYER   1 AT END OF TIME STEP 105 IN STRESS PERIOD    2
  ---------------------------------------------------------------------------

                1               2               3               4               5               6               7               8               9              10
 ................................................................................................................................................................
   1      1.00000         1.00000         1.00000         1.00000         1.00000         1.00000         1.00000         1.00000         1.00000         1.00000    
   2     0.999979         1.00000        0.999979         1.00000         1.00000         1.00000         1.00000         1.00000         1.00000         1.00000    
   3      1.00000        0.999978         1.00000         1.00000         1.00000         1.00000         1.00000         1.00000         1.00000         1.00000    
   4      1.00000         1.00000        0.999978         1.00000         1.00000         1.00000         1.00000         1.00000         1.00000         1.00000    
   5      1.00000         1.00003         1.00000        0.999977        0.999976         1.00000         1.00000         1.00000         1.00000         1.00000    
   6      1.00003         10.0000         1.00000        0.999977         1.00000        0.999976         1.00000         1.00000         1.00000         1.00000    
   7      1.00002         10.0000         1.00000         1.00000         1.00000         1.00000        0.999975         1.00000         1.00000         1.00000    
   8      1.00000         1.00002         1.00000         1.00000         1.00000         1.00000         1.00000        0.999974        0.999973         1.00000    
   9      1.00000         1.00000         1.00000         1.00000         1.00000         1.00000         1.00000        0.999974         1.00000         1.00000    
  10      1.00000         1.00000         1.00000         1.00000         1.00000         1.00000         1.00000         1.00000         1.00000         1.00000    
  11      1.00000         1.00000         1.00000         1.00000         1.00000         1.00000         1.00000         1.00000         1.00000         1.00000    
  12      1.00000         1.00000         1.00000         1.00000         1.00000         1.00000         1.00000         1.00000         1.00000         1.00000    
  13      1.00000         1.00000         1.00000         1.00000         1.00000         1.00000         1.00000         1.00000         1.00000         1.00000    
  14      1.00000         1.00000         1.00000         1.00000         1.00000         1.00000         1.00000         1.00000         1.00000         1.00000    
  15      1.00000         1.00000         1.00000         1.00000         1.00000         1.00000         1.00000         1.00000         1.00000         1.00000    
1
  CONCENTRATION IN LAYER   2 AT END OF TIME STEP 105 IN STRESS PERIOD    2
  ---------------------------------------------------------------------------

                1               2               3               4               5               6               7               8               9              10
 ................................................................................................................................................................
   1      1.00000         1.00000         1.00000         1.00000         1.00000         1.00000         1.00000         1.00000         1.00000         1.00000    
   2      1.00000         1.00000         1.00000         1.00000         1.00000         1.00000         1.00000         1.00000         1.00000         1.00000    
   3      1.00000         1.00000         1.00000         1.00000         1.00000         1.00000         1.00000         1.00000         1.00000         1.00000    
   4      1.00000         1.00000         1.00000         1.00000         1.00000         1.00000         1.00000         1.00000         1.00000         1.00000    
   5      1.00000         1.00000         1.00000         1.00000         1.00000         1.00000         1.00000         1.00000         1.00000         1.00000    
   6      1.00000         1.00001         1.00000         1.00000         1.00000         1.00000         1.00000         1.00000         1.00000         1.00000    
   7      1.00000         1.00000         1.00000         1.00000         1.00000         1.00000         1.00000         1.00000         1.00000         1.00000    
   8      1.00000         1.00000         1.00000         1.00000         1.00000         1.00000         1.00000         1.00000         1.00000         1.00000    
   9      1.00000         1.00000         1.00000         1.00000         1.00000         1.00000         1.00000         1.00000         1.00000         1.00000    
  10      1.00000         1.00000         1.00000         1.00000         1.00000         1.00000         1.00000         1.00000         1.00000         1.00000    
  11      1.00000         1.00000         1.00000         1.00000         1.00000         1.00000         1.00000         1.00000         1.00000         1.00000    
  12      1.00000         1.00000         1.00000         1.00000         1.00000         1.00000         1.00000         1.00000         1.00000         1.00000    
  13      1.00000         1.00000         1.00000         1.00000         1.00000         1.00000         1.00000         1.00000         1.00000         1.00000    
  14      1.00000         1.00000         1.00000         1.00000         1.00000         1.00000         1.00000         1.00000         1.00000         1.00000    
  15      1.00000         1.00000         1.00000         1.00000         1.00000         1.00000         1.00000         1.00000         1.00000         1.00000    
1
  CONCENTRATION IN LAYER   3 AT END OF TIME STEP 105 IN STRESS PERIOD    2
  ---------------------------------------------------------------------------

                1               2               3               4               5               6               7               8               9              10
 ................................................................................................................................................................
   1      1.00000         1.00000         1.00000         1.00000         1.00000         1.00000         1.00000         1.00000         1.00000         1.00000    
   2      1.00000         1.00000         1.00000         1.00000         1.00000         1.00000         1.00000         1.00000         1.00000         1.00000    
   3      1.00000         1.00000         1.00000         1.00000         1.00000         1.00000         1.00000         1.00000         1.00000         1.00000    
   4      1.00000         1.00000         1.00000         1.00000         1.00000         1.00000         1.00000         1.00000         1.00000         1.00000    
   5      1.00000         1.00000         1.00000         1.00000         1.00000         1.00000         1.00000         1.00000         1.00000         1.00000    
   6      1.00000         1.00000         1.00000         1.00000         1.00000         1.00000         1.00000         1.00000         1.00000         1.00000    
   7      1.00000         1.00000         1.00000         1.00000         1.00000         1.00000         1.00000         1.00000         1.00000         1.00000    
   8      1.00000         1.00000         1.00000         1.00000         1.00000         1.00000         1.00000         1.00000         1.00000         1.00000    
   9      1.00000         1.00000         1.00000         1.00000         1.00000         1.00000         1.00000         1.00000         1.00000         1.00000    
  10      1.00000         1.00000         1.00000         1.00000         1.00000         1.00000         1.00000         1.00000         1.00000         1.00000    
  11      1.00000         1.00000         1.00000         1.00000         1.00000         1.00000         1.00000         1.00000         1.00000         1.00000    
  12      1.00000         1.00000         1.00000         1.00000         1.00000         1.00000         1.00000         1.00000         1.00000         1.00000    
  13      1.00000         1.00000         1.00000         1.00000         1.00000         1.00000         1.00000         1.00000         1.00000         1.00000    
  14      1.00000         1.00000         1.00000         1.00000         1.00000         1.00000         1.00000         1.00000         1.00000         1.00000    
  15      1.00000         1.00000         1.00000         1.00000         1.00000         1.00000         1.00000         1.00000         1.00000         1.00000    

 CONCENTRATION WILL BE SAVED ON UNIT 1030 AT END OF TIME STEP  105, STRESS PERIOD    2


  MASS BUDGET FOR ENTIRE MODEL AT END OF TIME STEP  105, STRESS PERIOD   2
  ---------------------------------------------------------------------------------------------------

     CUMULATIVE MASS      M       RATES FOR THIS TIME STEP      M/T          PACKAGE NAME    
     ------------------                 ------------------------                     ----------------

           IN:                                      IN:
           ---                                      ---
     STORAGE-AQUEOUS =          19.9666       STORAGE-AQUEOUS =           2.0474     MST                              
                 RIV =           0.0000                   RIV =           0.0000     SSM_RIV-1                        
                 CHD =           0.0000                   CHD =           0.0000     SSM_CHD-1                        
                 CNC =           8.3191                   CNC =           0.8526     CNC_0                            

            TOTAL IN =          28.2857              TOTAL IN =           2.9001

          OUT:                                     OUT:
          ----                                     ----
     STORAGE-AQUEOUS =           8.7528       STORAGE-AQUEOUS =           0.8966     MST                              
                 RIV =           0.0000                   RIV =           0.0000     SSM_RIV-1                        
                 CHD =          18.7780                   CHD =           1.9260     SSM_CHD-1                        
                 CNC =           0.7550                   CNC =       7.7429E-02     CNC_0                            

           TOTAL OUT =          28.2857             TOTAL OUT =           2.9001

            IN - OUT =       2.8683E-09              IN - OUT =      -7.7804E-10

 PERCENT DISCREPANCY =           0.00     PERCENT DISCREPANCY =          -0.00




         TIME SUMMARY AT END OF TIME STEP  105 IN STRESS PERIOD    2
                    SECONDS     MINUTES      HOURS       DAYS        YEARS
                    -----------------------------------------------------------
   TIME STEP LENGTH  7200.0      120.00      2.0000     8.33333E-02 2.28154E-04
 STRESS PERIOD TIME 7.56000E+05  12600.      210.00      8.7500     2.39562E-02
         TOTAL TIME 8.42400E+05  14040.      234.00      9.7500     2.66940E-02


end timestep


start timestep kper="2" kstp="106" mode="normal"

 UBDSV1 SAVING  STORAGE-AQUEOUS ON UNIT   1029 AT TIME STEP    106, STRESS PERIOD      2
 UBDSV1 SAVING     FLOW-JA-FACE ON UNIT   1029 AT TIME STEP    106, STRESS PERIOD      2
 UBDSV06 SAVING  SOURCE-SINK MIX IN MODEL GWT_RIVERBASE    PACKAGE GWT_RIVERBASE   CONNECTED TO MODEL GWT_RIVERBASE    PACKAGE SSM              ON UNIT   1029 AT TIME STEP    106, STRESS PERIOD      2
 UBDSV06 SAVING              CNC IN MODEL GWT_RIVERBASE    PACKAGE GWT_RIVERBASE   CONNECTED TO MODEL GWT_RIVERBASE    PACKAGE CNC_0            ON UNIT   1029 AT TIME STEP    106, STRESS PERIOD      2
1
  CONCENTRATION IN LAYER   1 AT END OF TIME STEP 106 IN STRESS PERIOD    2
  ---------------------------------------------------------------------------

                1               2               3               4               5               6               7               8               9              10
 ................................................................................................................................................................
   1      1.00000         1.00000         1.00000         1.00000         1.00000         1.00000         1.00000         1.00000         1.00000         1.00000    
   2     0.999979         1.00000        0.999979         1.00000         1.00000         1.00000         1.00000         1.00000         1.00000         1.00000    
   3      1.00000        0.999978         1.00000         1.00000         1.00000         1.00000         1.00000         1.00000         1.00000         1.00000    
   4      1.00000         1.00000        0.999978         1.00000         1.00000         1.00000         1.00000         1.00000         1.00000         1.00000    
   5      1.00000         1.00003         1.00000        0.999977        0.999976         1.00000         1.00000         1.00000         1.00000         1.00000    
   6      1.00003         10.0000         1.00000        0.999977         1.00000        0.999975         1.00000         1.00000         1.00000         1.00000    
   7      1.00002         10.0000         1.00000         1.00000         1.00000         1.00000        0.999975         1.00000         1.00000         1.00000    
   8      1.00000         1.00002         1.00000         1.00000         1.00000         1.00000         1.00000        0.999974        0.999973         1.00000    
   9      1.00000         1.00000         1.00000         1.00000         1.00000         1.00000         1.00000        0.999973         1.00000         1.00000    
  10      1.00000         1.00000         1.00000         1.00000         1.00000         1.00000         1.00000         1.00000         1.00000         1.00000    
  11      1.00000         1.00000         1.00000         1.00000         1.00000         1.00000         1.00000         1.00000         1.00000         1.00000    
  12      1.00000         1.00000         1.00000         1.00000         1.00000         1.00000         1.00000         1.00000         1.00000         1.00000    
  13      1.00000         1.00000         1.00000         1.00000         1.00000         1.00000         1.00000         1.00000         1.00000         1.00000    
  14      1.00000         1.00000         1.00000         1.00000         1.00000         1.00000         1.00000         1.00000         1.00000         1.00000    
  15      1.00000         1.00000         1.00000         1.00000         1.00000         1.00000         1.00000         1.00000         1.00000         1.00000    
1
  CONCENTRATION IN LAYER   2 AT END OF TIME STEP 106 IN STRESS PERIOD    2
  ---------------------------------------------------------------------------

                1               2               3               4               5               6               7               8               9              10
 ................................................................................................................................................................
   1      1.00000         1.00000         1.00000         1.00000         1.00000         1.00000         1.00000         1.00000         1.00000         1.00000    
   2      1.00000         1.00000         1.00000         1.00000         1.00000         1.00000         1.00000         1.00000         1.00000         1.00000    
   3      1.00000         1.00000         1.00000         1.00000         1.00000         1.00000         1.00000         1.00000         1.00000         1.00000    
   4      1.00000         1.00000         1.00000         1.00000         1.00000         1.00000         1.00000         1.00000         1.00000         1.00000    
   5      1.00000         1.00000         1.00000         1.00000         1.00000         1.00000         1.00000         1.00000         1.00000         1.00000    
   6      1.00000         1.00001         1.00000         1.00000         1.00000         1.00000         1.00000         1.00000         1.00000         1.00000    
   7      1.00000         1.00000         1.00000         1.00000         1.00000         1.00000         1.00000         1.00000         1.00000         1.00000    
   8      1.00000         1.00000         1.00000         1.00000         1.00000         1.00000         1.00000         1.00000         1.00000         1.00000    
   9      1.00000         1.00000         1.00000         1.00000         1.00000         1.00000         1.00000         1.00000         1.00000         1.00000    
  10      1.00000         1.00000         1.00000         1.00000         1.00000         1.00000         1.00000         1.00000         1.00000         1.00000    
  11      1.00000         1.00000         1.00000         1.00000         1.00000         1.00000         1.00000         1.00000         1.00000         1.00000    
  12      1.00000         1.00000         1.00000         1.00000         1.00000         1.00000         1.00000         1.00000         1.00000         1.00000    
  13      1.00000         1.00000         1.00000         1.00000         1.00000         1.00000         1.00000         1.00000         1.00000         1.00000    
  14      1.00000         1.00000         1.00000         1.00000         1.00000         1.00000         1.00000         1.00000         1.00000         1.00000    
  15      1.00000         1.00000         1.00000         1.00000         1.00000         1.00000         1.00000         1.00000         1.00000         1.00000    
1
  CONCENTRATION IN LAYER   3 AT END OF TIME STEP 106 IN STRESS PERIOD    2
  ---------------------------------------------------------------------------

                1               2               3               4               5               6               7               8               9              10
 ................................................................................................................................................................
   1      1.00000         1.00000         1.00000         1.00000         1.00000         1.00000         1.00000         1.00000         1.00000         1.00000    
   2      1.00000         1.00000         1.00000         1.00000         1.00000         1.00000         1.00000         1.00000         1.00000         1.00000    
   3      1.00000         1.00000         1.00000         1.00000         1.00000         1.00000         1.00000         1.00000         1.00000         1.00000    
   4      1.00000         1.00000         1.00000         1.00000         1.00000         1.00000         1.00000         1.00000         1.00000         1.00000    
   5      1.00000         1.00000         1.00000         1.00000         1.00000         1.00000         1.00000         1.00000         1.00000         1.00000    
   6      1.00000         1.00000         1.00000         1.00000         1.00000         1.00000         1.00000         1.00000         1.00000         1.00000    
   7      1.00000         1.00000         1.00000         1.00000         1.00000         1.00000         1.00000         1.00000         1.00000         1.00000    
   8      1.00000         1.00000         1.00000         1.00000         1.00000         1.00000         1.00000         1.00000         1.00000         1.00000    
   9      1.00000         1.00000         1.00000         1.00000         1.00000         1.00000         1.00000         1.00000         1.00000         1.00000    
  10      1.00000         1.00000         1.00000         1.00000         1.00000         1.00000         1.00000         1.00000         1.00000         1.00000    
  11      1.00000         1.00000         1.00000         1.00000         1.00000         1.00000         1.00000         1.00000         1.00000         1.00000    
  12      1.00000         1.00000         1.00000         1.00000         1.00000         1.00000         1.00000         1.00000         1.00000         1.00000    
  13      1.00000         1.00000         1.00000         1.00000         1.00000         1.00000         1.00000         1.00000         1.00000         1.00000    
  14      1.00000         1.00000         1.00000         1.00000         1.00000         1.00000         1.00000         1.00000         1.00000         1.00000    
  15      1.00000         1.00000         1.00000         1.00000         1.00000         1.00000         1.00000         1.00000         1.00000         1.00000    

 CONCENTRATION WILL BE SAVED ON UNIT 1030 AT END OF TIME STEP  106, STRESS PERIOD    2


  MASS BUDGET FOR ENTIRE MODEL AT END OF TIME STEP  106, STRESS PERIOD   2
  ---------------------------------------------------------------------------------------------------

     CUMULATIVE MASS      M       RATES FOR THIS TIME STEP      M/T          PACKAGE NAME    
     ------------------                 ------------------------                     ----------------

           IN:                                      IN:
           ---                                      ---
     STORAGE-AQUEOUS =          20.1372       STORAGE-AQUEOUS =           2.0474     MST                              
                 RIV =           0.0000                   RIV =           0.0000     SSM_RIV-1                        
                 CHD =           0.0000                   CHD =           0.0000     SSM_CHD-1                        
                 CNC =           8.3901                   CNC =           0.8526     CNC_0                            

            TOTAL IN =          28.5274              TOTAL IN =           2.9001

          OUT:                                     OUT:
          ----                                     ----
     STORAGE-AQUEOUS =           8.8275       STORAGE-AQUEOUS =           0.8966     MST                              
                 RIV =           0.0000                   RIV =           0.0000     SSM_RIV-1                        
                 CHD =          18.9385                   CHD =           1.9260     SSM_CHD-1                        
                 CNC =           0.7614                   CNC =       7.7429E-02     CNC_0                            

           TOTAL OUT =          28.5274             TOTAL OUT =           2.9001

            IN - OUT =       2.9785E-09              IN - OUT =       1.3230E-09

 PERCENT DISCREPANCY =           0.00     PERCENT DISCREPANCY =           0.00




         TIME SUMMARY AT END OF TIME STEP  106 IN STRESS PERIOD    2
                    SECONDS     MINUTES      HOURS       DAYS        YEARS
                    -----------------------------------------------------------
   TIME STEP LENGTH  7200.0      120.00      2.0000     8.33333E-02 2.28154E-04
 STRESS PERIOD TIME 7.63200E+05  12720.      212.00      8.8333     2.41843E-02
         TOTAL TIME 8.49600E+05  14160.      236.00      9.8333     2.69222E-02


end timestep


start timestep kper="2" kstp="107" mode="normal"

 UBDSV1 SAVING  STORAGE-AQUEOUS ON UNIT   1029 AT TIME STEP    107, STRESS PERIOD      2
 UBDSV1 SAVING     FLOW-JA-FACE ON UNIT   1029 AT TIME STEP    107, STRESS PERIOD      2
 UBDSV06 SAVING  SOURCE-SINK MIX IN MODEL GWT_RIVERBASE    PACKAGE GWT_RIVERBASE   CONNECTED TO MODEL GWT_RIVERBASE    PACKAGE SSM              ON UNIT   1029 AT TIME STEP    107, STRESS PERIOD      2
 UBDSV06 SAVING              CNC IN MODEL GWT_RIVERBASE    PACKAGE GWT_RIVERBASE   CONNECTED TO MODEL GWT_RIVERBASE    PACKAGE CNC_0            ON UNIT   1029 AT TIME STEP    107, STRESS PERIOD      2
1
  CONCENTRATION IN LAYER   1 AT END OF TIME STEP 107 IN STRESS PERIOD    2
  ---------------------------------------------------------------------------

                1               2               3               4               5               6               7               8               9              10
 ................................................................................................................................................................
   1      1.00000         1.00000         1.00000         1.00000         1.00000         1.00000         1.00000         1.00000         1.00000         1.00000    
   2     0.999979         1.00000        0.999979         1.00000         1.00000         1.00000         1.00000         1.00000         1.00000         1.00000    
   3      1.00000        0.999978         1.00000         1.00000         1.00000         1.00000         1.00000         1.00000         1.00000         1.00000    
   4      1.00000         1.00000        0.999978         1.00000         1.00000         1.00000         1.00000         1.00000         1.00000         1.00000    
   5      1.00000         1.00003         1.00000        0.999977        0.999976         1.00000         1.00000         1.00000         1.00000         1.00000    
   6      1.00003         10.0000         1.00000        0.999976         1.00000        0.999975         1.00000         1.00000         1.00000         1.00000    
   7      1.00002         10.0000         1.00000         1.00000         1.00000         1.00000        0.999974         1.00000         1.00000         1.00000    
   8      1.00000         1.00002         1.00000         1.00000         1.00000         1.00000         1.00000        0.999974        0.999973         1.00000    
   9      1.00000         1.00000         1.00000         1.00000         1.00000         1.00000         1.00000        0.999973         1.00000         1.00000    
  10      1.00000         1.00000         1.00000         1.00000         1.00000         1.00000         1.00000         1.00000         1.00000         1.00000    
  11      1.00000         1.00000         1.00000         1.00000         1.00000         1.00000         1.00000         1.00000         1.00000         1.00000    
  12      1.00000         1.00000         1.00000         1.00000         1.00000         1.00000         1.00000         1.00000         1.00000         1.00000    
  13      1.00000         1.00000         1.00000         1.00000         1.00000         1.00000         1.00000         1.00000         1.00000         1.00000    
  14      1.00000         1.00000         1.00000         1.00000         1.00000         1.00000         1.00000         1.00000         1.00000         1.00000    
  15      1.00000         1.00000         1.00000         1.00000         1.00000         1.00000         1.00000         1.00000         1.00000         1.00000    
1
  CONCENTRATION IN LAYER   2 AT END OF TIME STEP 107 IN STRESS PERIOD    2
  ---------------------------------------------------------------------------

                1               2               3               4               5               6               7               8               9              10
 ................................................................................................................................................................
   1      1.00000         1.00000         1.00000         1.00000         1.00000         1.00000         1.00000         1.00000         1.00000         1.00000    
   2      1.00000         1.00000         1.00000         1.00000         1.00000         1.00000         1.00000         1.00000         1.00000         1.00000    
   3      1.00000         1.00000         1.00000         1.00000         1.00000         1.00000         1.00000         1.00000         1.00000         1.00000    
   4      1.00000         1.00000         1.00000         1.00000         1.00000         1.00000         1.00000         1.00000         1.00000         1.00000    
   5      1.00000         1.00000         1.00000         1.00000         1.00000         1.00000         1.00000         1.00000         1.00000         1.00000    
   6      1.00000         1.00001         1.00000         1.00000         1.00000         1.00000         1.00000         1.00000         1.00000         1.00000    
   7      1.00000         1.00000         1.00000         1.00000         1.00000         1.00000         1.00000         1.00000         1.00000         1.00000    
   8      1.00000         1.00000         1.00000         1.00000         1.00000         1.00000         1.00000         1.00000         1.00000         1.00000    
   9      1.00000         1.00000         1.00000         1.00000         1.00000         1.00000         1.00000         1.00000         1.00000         1.00000    
  10      1.00000         1.00000         1.00000         1.00000         1.00000         1.00000         1.00000         1.00000         1.00000         1.00000    
  11      1.00000         1.00000         1.00000         1.00000         1.00000         1.00000         1.00000         1.00000         1.00000         1.00000    
  12      1.00000         1.00000         1.00000         1.00000         1.00000         1.00000         1.00000         1.00000         1.00000         1.00000    
  13      1.00000         1.00000         1.00000         1.00000         1.00000         1.00000         1.00000         1.00000         1.00000         1.00000    
  14      1.00000         1.00000         1.00000         1.00000         1.00000         1.00000         1.00000         1.00000         1.00000         1.00000    
  15      1.00000         1.00000         1.00000         1.00000         1.00000         1.00000         1.00000         1.00000         1.00000         1.00000    
1
  CONCENTRATION IN LAYER   3 AT END OF TIME STEP 107 IN STRESS PERIOD    2
  ---------------------------------------------------------------------------

                1               2               3               4               5               6               7               8               9              10
 ................................................................................................................................................................
   1      1.00000         1.00000         1.00000         1.00000         1.00000         1.00000         1.00000         1.00000         1.00000         1.00000    
   2      1.00000         1.00000         1.00000         1.00000         1.00000         1.00000         1.00000         1.00000         1.00000         1.00000    
   3      1.00000         1.00000         1.00000         1.00000         1.00000         1.00000         1.00000         1.00000         1.00000         1.00000    
   4      1.00000         1.00000         1.00000         1.00000         1.00000         1.00000         1.00000         1.00000         1.00000         1.00000    
   5      1.00000         1.00000         1.00000         1.00000         1.00000         1.00000         1.00000         1.00000         1.00000         1.00000    
   6      1.00000         1.00000         1.00000         1.00000         1.00000         1.00000         1.00000         1.00000         1.00000         1.00000    
   7      1.00000         1.00000         1.00000         1.00000         1.00000         1.00000         1.00000         1.00000         1.00000         1.00000    
   8      1.00000         1.00000         1.00000         1.00000         1.00000         1.00000         1.00000         1.00000         1.00000         1.00000    
   9      1.00000         1.00000         1.00000         1.00000         1.00000         1.00000         1.00000         1.00000         1.00000         1.00000    
  10      1.00000         1.00000         1.00000         1.00000         1.00000         1.00000         1.00000         1.00000         1.00000         1.00000    
  11      1.00000         1.00000         1.00000         1.00000         1.00000         1.00000         1.00000         1.00000         1.00000         1.00000    
  12      1.00000         1.00000         1.00000         1.00000         1.00000         1.00000         1.00000         1.00000         1.00000         1.00000    
  13      1.00000         1.00000         1.00000         1.00000         1.00000         1.00000         1.00000         1.00000         1.00000         1.00000    
  14      1.00000         1.00000         1.00000         1.00000         1.00000         1.00000         1.00000         1.00000         1.00000         1.00000    
  15      1.00000         1.00000         1.00000         1.00000         1.00000         1.00000         1.00000         1.00000         1.00000         1.00000    

 CONCENTRATION WILL BE SAVED ON UNIT 1030 AT END OF TIME STEP  107, STRESS PERIOD    2


  MASS BUDGET FOR ENTIRE MODEL AT END OF TIME STEP  107, STRESS PERIOD   2
  ---------------------------------------------------------------------------------------------------

     CUMULATIVE MASS      M       RATES FOR THIS TIME STEP      M/T          PACKAGE NAME    
     ------------------                 ------------------------                     ----------------

           IN:                                      IN:
           ---                                      ---
     STORAGE-AQUEOUS =          20.3079       STORAGE-AQUEOUS =           2.0474     MST                              
                 RIV =           0.0000                   RIV =           0.0000     SSM_RIV-1                        
                 CHD =           0.0000                   CHD =           0.0000     SSM_CHD-1                        
                 CNC =           8.4612                   CNC =           0.8526     CNC_0                            

            TOTAL IN =          28.7690              TOTAL IN =           2.9001

          OUT:                                     OUT:
          ----                                     ----
     STORAGE-AQUEOUS =           8.9022       STORAGE-AQUEOUS =           0.8966     MST                              
                 RIV =           0.0000                   RIV =           0.0000     SSM_RIV-1                        
                 CHD =          19.0990                   CHD =           1.9260     SSM_CHD-1                        
                 CNC =           0.7679                   CNC =       7.7429E-02     CNC_0                            

           TOTAL OUT =          28.7690             TOTAL OUT =           2.9001

            IN - OUT =       2.7839E-09              IN - OUT =      -2.3359E-09

 PERCENT DISCREPANCY =           0.00     PERCENT DISCREPANCY =          -0.00




         TIME SUMMARY AT END OF TIME STEP  107 IN STRESS PERIOD    2
                    SECONDS     MINUTES      HOURS       DAYS        YEARS
                    -----------------------------------------------------------
   TIME STEP LENGTH  7200.0      120.00      2.0000     8.33333E-02 2.28154E-04
 STRESS PERIOD TIME 7.70400E+05  12840.      214.00      8.9167     2.44125E-02
         TOTAL TIME 8.56800E+05  14280.      238.00      9.9167     2.71504E-02


end timestep


start timestep kper="2" kstp="108" mode="normal"

 UBDSV1 SAVING  STORAGE-AQUEOUS ON UNIT   1029 AT TIME STEP    108, STRESS PERIOD      2
 UBDSV1 SAVING     FLOW-JA-FACE ON UNIT   1029 AT TIME STEP    108, STRESS PERIOD      2
 UBDSV06 SAVING  SOURCE-SINK MIX IN MODEL GWT_RIVERBASE    PACKAGE GWT_RIVERBASE   CONNECTED TO MODEL GWT_RIVERBASE    PACKAGE SSM              ON UNIT   1029 AT TIME STEP    108, STRESS PERIOD      2
 UBDSV06 SAVING              CNC IN MODEL GWT_RIVERBASE    PACKAGE GWT_RIVERBASE   CONNECTED TO MODEL GWT_RIVERBASE    PACKAGE CNC_0            ON UNIT   1029 AT TIME STEP    108, STRESS PERIOD      2
1
  CONCENTRATION IN LAYER   1 AT END OF TIME STEP 108 IN STRESS PERIOD    2
  ---------------------------------------------------------------------------

                1               2               3               4               5               6               7               8               9              10
 ................................................................................................................................................................
   1      1.00000         1.00000         1.00000         1.00000         1.00000         1.00000         1.00000         1.00000         1.00000         1.00000    
   2     0.999979         1.00000        0.999979         1.00000         1.00000         1.00000         1.00000         1.00000         1.00000         1.00000    
   3      1.00000        0.999978         1.00000         1.00000         1.00000         1.00000         1.00000         1.00000         1.00000         1.00000    
   4      1.00000         1.00000        0.999977         1.00000         1.00000         1.00000         1.00000         1.00000         1.00000         1.00000    
   5      1.00000         1.00003         1.00000        0.999977        0.999976         1.00000         1.00000         1.00000         1.00000         1.00000    
   6      1.00003         10.0000         1.00000        0.999976         1.00000        0.999975         1.00000         1.00000         1.00000         1.00000    
   7      1.00002         10.0000         1.00000         1.00000         1.00000         1.00000        0.999974         1.00000         1.00000         1.00000    
   8      1.00000         1.00002         1.00000         1.00000         1.00000         1.00000         1.00000        0.999974        0.999972         1.00000    
   9      1.00000         1.00000         1.00000         1.00000         1.00000         1.00000         1.00000        0.999973         1.00000         1.00000    
  10      1.00000         1.00000         1.00000         1.00000         1.00000         1.00000         1.00000         1.00000         1.00000         1.00000    
  11      1.00000         1.00000         1.00000         1.00000         1.00000         1.00000         1.00000         1.00000         1.00000         1.00000    
  12      1.00000         1.00000         1.00000         1.00000         1.00000         1.00000         1.00000         1.00000         1.00000         1.00000    
  13      1.00000         1.00000         1.00000         1.00000         1.00000         1.00000         1.00000         1.00000         1.00000         1.00000    
  14      1.00000         1.00000         1.00000         1.00000         1.00000         1.00000         1.00000         1.00000         1.00000         1.00000    
  15      1.00000         1.00000         1.00000         1.00000         1.00000         1.00000         1.00000         1.00000         1.00000         1.00000    
1
  CONCENTRATION IN LAYER   2 AT END OF TIME STEP 108 IN STRESS PERIOD    2
  ---------------------------------------------------------------------------

                1               2               3               4               5               6               7               8               9              10
 ................................................................................................................................................................
   1      1.00000         1.00000         1.00000         1.00000         1.00000         1.00000         1.00000         1.00000         1.00000         1.00000    
   2      1.00000         1.00000         1.00000         1.00000         1.00000         1.00000         1.00000         1.00000         1.00000         1.00000    
   3      1.00000         1.00000         1.00000         1.00000         1.00000         1.00000         1.00000         1.00000         1.00000         1.00000    
   4      1.00000         1.00000         1.00000         1.00000         1.00000         1.00000         1.00000         1.00000         1.00000         1.00000    
   5      1.00000         1.00000         1.00000         1.00000         1.00000         1.00000         1.00000         1.00000         1.00000         1.00000    
   6      1.00000         1.00001         1.00000         1.00000         1.00000         1.00000         1.00000         1.00000         1.00000         1.00000    
   7      1.00000         1.00000         1.00000         1.00000         1.00000         1.00000         1.00000         1.00000         1.00000         1.00000    
   8      1.00000         1.00000         1.00000         1.00000         1.00000         1.00000         1.00000         1.00000         1.00000         1.00000    
   9      1.00000         1.00000         1.00000         1.00000         1.00000         1.00000         1.00000         1.00000         1.00000         1.00000    
  10      1.00000         1.00000         1.00000         1.00000         1.00000         1.00000         1.00000         1.00000         1.00000         1.00000    
  11      1.00000         1.00000         1.00000         1.00000         1.00000         1.00000         1.00000         1.00000         1.00000         1.00000    
  12      1.00000         1.00000         1.00000         1.00000         1.00000         1.00000         1.00000         1.00000         1.00000         1.00000    
  13      1.00000         1.00000         1.00000         1.00000         1.00000         1.00000         1.00000         1.00000         1.00000         1.00000    
  14      1.00000         1.00000         1.00000         1.00000         1.00000         1.00000         1.00000         1.00000         1.00000         1.00000    
  15      1.00000         1.00000         1.00000         1.00000         1.00000         1.00000         1.00000         1.00000         1.00000         1.00000    
1
  CONCENTRATION IN LAYER   3 AT END OF TIME STEP 108 IN STRESS PERIOD    2
  ---------------------------------------------------------------------------

                1               2               3               4               5               6               7               8               9              10
 ................................................................................................................................................................
   1      1.00000         1.00000         1.00000         1.00000         1.00000         1.00000         1.00000         1.00000         1.00000         1.00000    
   2      1.00000         1.00000         1.00000         1.00000         1.00000         1.00000         1.00000         1.00000         1.00000         1.00000    
   3      1.00000         1.00000         1.00000         1.00000         1.00000         1.00000         1.00000         1.00000         1.00000         1.00000    
   4      1.00000         1.00000         1.00000         1.00000         1.00000         1.00000         1.00000         1.00000         1.00000         1.00000    
   5      1.00000         1.00000         1.00000         1.00000         1.00000         1.00000         1.00000         1.00000         1.00000         1.00000    
   6      1.00000         1.00000         1.00000         1.00000         1.00000         1.00000         1.00000         1.00000         1.00000         1.00000    
   7      1.00000         1.00000         1.00000         1.00000         1.00000         1.00000         1.00000         1.00000         1.00000         1.00000    
   8      1.00000         1.00000         1.00000         1.00000         1.00000         1.00000         1.00000         1.00000         1.00000         1.00000    
   9      1.00000         1.00000         1.00000         1.00000         1.00000         1.00000         1.00000         1.00000         1.00000         1.00000    
  10      1.00000         1.00000         1.00000         1.00000         1.00000         1.00000         1.00000         1.00000         1.00000         1.00000    
  11      1.00000         1.00000         1.00000         1.00000         1.00000         1.00000         1.00000         1.00000         1.00000         1.00000    
  12      1.00000         1.00000         1.00000         1.00000         1.00000         1.00000         1.00000         1.00000         1.00000         1.00000    
  13      1.00000         1.00000         1.00000         1.00000         1.00000         1.00000         1.00000         1.00000         1.00000         1.00000    
  14      1.00000         1.00000         1.00000         1.00000         1.00000         1.00000         1.00000         1.00000         1.00000         1.00000    
  15      1.00000         1.00000         1.00000         1.00000         1.00000         1.00000         1.00000         1.00000         1.00000         1.00000    

 CONCENTRATION WILL BE SAVED ON UNIT 1030 AT END OF TIME STEP  108, STRESS PERIOD    2


  MASS BUDGET FOR ENTIRE MODEL AT END OF TIME STEP  108, STRESS PERIOD   2
  ---------------------------------------------------------------------------------------------------

     CUMULATIVE MASS      M       RATES FOR THIS TIME STEP      M/T          PACKAGE NAME    
     ------------------                 ------------------------                     ----------------

           IN:                                      IN:
           ---                                      ---
     STORAGE-AQUEOUS =          20.4785       STORAGE-AQUEOUS =           2.0474     MST                              
                 RIV =           0.0000                   RIV =           0.0000     SSM_RIV-1                        
                 CHD =           0.0000                   CHD =           0.0000     SSM_CHD-1                        
                 CNC =           8.5322                   CNC =           0.8526     CNC_0                            

            TOTAL IN =          29.0107              TOTAL IN =           2.9001

          OUT:                                     OUT:
          ----                                     ----
     STORAGE-AQUEOUS =           8.9769       STORAGE-AQUEOUS =           0.8966     MST                              
                 RIV =           0.0000                   RIV =           0.0000     SSM_RIV-1                        
                 CHD =          19.2595                   CHD =           1.9260     SSM_CHD-1                        
                 CNC =           0.7743                   CNC =       7.7429E-02     CNC_0                            

           TOTAL OUT =          29.0107             TOTAL OUT =           2.9001

            IN - OUT =       2.8428E-09              IN - OUT =       7.0650E-10

 PERCENT DISCREPANCY =           0.00     PERCENT DISCREPANCY =           0.00




         TIME SUMMARY AT END OF TIME STEP  108 IN STRESS PERIOD    2
                    SECONDS     MINUTES      HOURS       DAYS        YEARS
                    -----------------------------------------------------------
   TIME STEP LENGTH  7200.0      120.00      2.0000     8.33333E-02 2.28154E-04
 STRESS PERIOD TIME 7.77600E+05  12960.      216.00      9.0000     2.46407E-02
         TOTAL TIME 8.64000E+05  14400.      240.00      10.000     2.73785E-02


end timestep


start timestep kper="2" kstp="109" mode="normal"

 UBDSV1 SAVING  STORAGE-AQUEOUS ON UNIT   1029 AT TIME STEP    109, STRESS PERIOD      2
 UBDSV1 SAVING     FLOW-JA-FACE ON UNIT   1029 AT TIME STEP    109, STRESS PERIOD      2
 UBDSV06 SAVING  SOURCE-SINK MIX IN MODEL GWT_RIVERBASE    PACKAGE GWT_RIVERBASE   CONNECTED TO MODEL GWT_RIVERBASE    PACKAGE SSM              ON UNIT   1029 AT TIME STEP    109, STRESS PERIOD      2
 UBDSV06 SAVING              CNC IN MODEL GWT_RIVERBASE    PACKAGE GWT_RIVERBASE   CONNECTED TO MODEL GWT_RIVERBASE    PACKAGE CNC_0            ON UNIT   1029 AT TIME STEP    109, STRESS PERIOD      2
1
  CONCENTRATION IN LAYER   1 AT END OF TIME STEP 109 IN STRESS PERIOD    2
  ---------------------------------------------------------------------------

                1               2               3               4               5               6               7               8               9              10
 ................................................................................................................................................................
   1      1.00000         1.00000         1.00000         1.00000         1.00000         1.00000         1.00000         1.00000         1.00000         1.00000    
   2     0.999979         1.00000        0.999978         1.00000         1.00000         1.00000         1.00000         1.00000         1.00000         1.00000    
   3      1.00000        0.999978         1.00000         1.00000         1.00000         1.00000         1.00000         1.00000         1.00000         1.00000    
   4      1.00000         1.00000        0.999977         1.00000         1.00000         1.00000         1.00000         1.00000         1.00000         1.00000    
   5      1.00000         1.00003         1.00000        0.999977        0.999975         1.00000         1.00000         1.00000         1.00000         1.00000    
   6      1.00003         10.0000         1.00000        0.999976         1.00000        0.999975         1.00000         1.00000         1.00000         1.00000    
   7      1.00002         10.0000         1.00000         1.00000         1.00000         1.00000        0.999974         1.00000         1.00000         1.00000    
   8      1.00000         1.00002         1.00000         1.00000         1.00000         1.00000         1.00000        0.999973        0.999972         1.00000    
   9      1.00000         1.00000         1.00000         1.00000         1.00000         1.00000         1.00000        0.999973         1.00000         1.00000    
  10      1.00000         1.00000         1.00000         1.00000         1.00000         1.00000         1.00000         1.00000         1.00000         1.00000    
  11      1.00000         1.00000         1.00000         1.00000         1.00000         1.00000         1.00000         1.00000         1.00000         1.00000    
  12      1.00000         1.00000         1.00000         1.00000         1.00000         1.00000         1.00000         1.00000         1.00000         1.00000    
  13      1.00000         1.00000         1.00000         1.00000         1.00000         1.00000         1.00000         1.00000         1.00000         1.00000    
  14      1.00000         1.00000         1.00000         1.00000         1.00000         1.00000         1.00000         1.00000         1.00000         1.00000    
  15      1.00000         1.00000         1.00000         1.00000         1.00000         1.00000         1.00000         1.00000         1.00000         1.00000    
1
  CONCENTRATION IN LAYER   2 AT END OF TIME STEP 109 IN STRESS PERIOD    2
  ---------------------------------------------------------------------------

                1               2               3               4               5               6               7               8               9              10
 ................................................................................................................................................................
   1      1.00000         1.00000         1.00000         1.00000         1.00000         1.00000         1.00000         1.00000         1.00000         1.00000    
   2      1.00000         1.00000         1.00000         1.00000         1.00000         1.00000         1.00000         1.00000         1.00000         1.00000    
   3      1.00000         1.00000         1.00000         1.00000         1.00000         1.00000         1.00000         1.00000         1.00000         1.00000    
   4      1.00000         1.00000         1.00000         1.00000         1.00000         1.00000         1.00000         1.00000         1.00000         1.00000    
   5      1.00000         1.00000         1.00000         1.00000         1.00000         1.00000         1.00000         1.00000         1.00000         1.00000    
   6      1.00000         1.00001         1.00000         1.00000         1.00000         1.00000         1.00000         1.00000         1.00000         1.00000    
   7      1.00000         1.00000         1.00000         1.00000         1.00000         1.00000         1.00000         1.00000         1.00000         1.00000    
   8      1.00000         1.00000         1.00000         1.00000         1.00000         1.00000         1.00000         1.00000         1.00000         1.00000    
   9      1.00000         1.00000         1.00000         1.00000         1.00000         1.00000         1.00000         1.00000         1.00000         1.00000    
  10      1.00000         1.00000         1.00000         1.00000         1.00000         1.00000         1.00000         1.00000         1.00000         1.00000    
  11      1.00000         1.00000         1.00000         1.00000         1.00000         1.00000         1.00000         1.00000         1.00000         1.00000    
  12      1.00000         1.00000         1.00000         1.00000         1.00000         1.00000         1.00000         1.00000         1.00000         1.00000    
  13      1.00000         1.00000         1.00000         1.00000         1.00000         1.00000         1.00000         1.00000         1.00000         1.00000    
  14      1.00000         1.00000         1.00000         1.00000         1.00000         1.00000         1.00000         1.00000         1.00000         1.00000    
  15      1.00000         1.00000         1.00000         1.00000         1.00000         1.00000         1.00000         1.00000         1.00000         1.00000    
1
  CONCENTRATION IN LAYER   3 AT END OF TIME STEP 109 IN STRESS PERIOD    2
  ---------------------------------------------------------------------------

                1               2               3               4               5               6               7               8               9              10
 ................................................................................................................................................................
   1      1.00000         1.00000         1.00000         1.00000         1.00000         1.00000         1.00000         1.00000         1.00000         1.00000    
   2      1.00000         1.00000         1.00000         1.00000         1.00000         1.00000         1.00000         1.00000         1.00000         1.00000    
   3      1.00000         1.00000         1.00000         1.00000         1.00000         1.00000         1.00000         1.00000         1.00000         1.00000    
   4      1.00000         1.00000         1.00000         1.00000         1.00000         1.00000         1.00000         1.00000         1.00000         1.00000    
   5      1.00000         1.00000         1.00000         1.00000         1.00000         1.00000         1.00000         1.00000         1.00000         1.00000    
   6      1.00000         1.00000         1.00000         1.00000         1.00000         1.00000         1.00000         1.00000         1.00000         1.00000    
   7      1.00000         1.00000         1.00000         1.00000         1.00000         1.00000         1.00000         1.00000         1.00000         1.00000    
   8      1.00000         1.00000         1.00000         1.00000         1.00000         1.00000         1.00000         1.00000         1.00000         1.00000    
   9      1.00000         1.00000         1.00000         1.00000         1.00000         1.00000         1.00000         1.00000         1.00000         1.00000    
  10      1.00000         1.00000         1.00000         1.00000         1.00000         1.00000         1.00000         1.00000         1.00000         1.00000    
  11      1.00000         1.00000         1.00000         1.00000         1.00000         1.00000         1.00000         1.00000         1.00000         1.00000    
  12      1.00000         1.00000         1.00000         1.00000         1.00000         1.00000         1.00000         1.00000         1.00000         1.00000    
  13      1.00000         1.00000         1.00000         1.00000         1.00000         1.00000         1.00000         1.00000         1.00000         1.00000    
  14      1.00000         1.00000         1.00000         1.00000         1.00000         1.00000         1.00000         1.00000         1.00000         1.00000    
  15      1.00000         1.00000         1.00000         1.00000         1.00000         1.00000         1.00000         1.00000         1.00000         1.00000    

 CONCENTRATION WILL BE SAVED ON UNIT 1030 AT END OF TIME STEP  109, STRESS PERIOD    2


  MASS BUDGET FOR ENTIRE MODEL AT END OF TIME STEP  109, STRESS PERIOD   2
  ---------------------------------------------------------------------------------------------------

     CUMULATIVE MASS      M       RATES FOR THIS TIME STEP      M/T          PACKAGE NAME    
     ------------------                 ------------------------                     ----------------

           IN:                                      IN:
           ---                                      ---
     STORAGE-AQUEOUS =          20.6491       STORAGE-AQUEOUS =           2.0474     MST                              
                 RIV =           0.0000                   RIV =           0.0000     SSM_RIV-1                        
                 CHD =           0.0000                   CHD =           0.0000     SSM_CHD-1                        
                 CNC =           8.6033                   CNC =           0.8526     CNC_0                            

            TOTAL IN =          29.2524              TOTAL IN =           2.9001

          OUT:                                     OUT:
          ----                                     ----
     STORAGE-AQUEOUS =           9.0516       STORAGE-AQUEOUS =           0.8966     MST                              
                 RIV =           0.0000                   RIV =           0.0000     SSM_RIV-1                        
                 CHD =          19.4200                   CHD =           1.9260     SSM_CHD-1                        
                 CNC =           0.7808                   CNC =       7.7429E-02     CNC_0                            

           TOTAL OUT =          29.2524             TOTAL OUT =           2.9001

            IN - OUT =       2.9207E-09              IN - OUT =       9.3551E-10

 PERCENT DISCREPANCY =           0.00     PERCENT DISCREPANCY =           0.00




         TIME SUMMARY AT END OF TIME STEP  109 IN STRESS PERIOD    2
                    SECONDS     MINUTES      HOURS       DAYS        YEARS
                    -----------------------------------------------------------
   TIME STEP LENGTH  7200.0      120.00      2.0000     8.33333E-02 2.28154E-04
 STRESS PERIOD TIME 7.84800E+05  13080.      218.00      9.0833     2.48688E-02
         TOTAL TIME 8.71200E+05  14520.      242.00      10.083     2.76067E-02


end timestep


start timestep kper="2" kstp="110" mode="normal"

 UBDSV1 SAVING  STORAGE-AQUEOUS ON UNIT   1029 AT TIME STEP    110, STRESS PERIOD      2
 UBDSV1 SAVING     FLOW-JA-FACE ON UNIT   1029 AT TIME STEP    110, STRESS PERIOD      2
 UBDSV06 SAVING  SOURCE-SINK MIX IN MODEL GWT_RIVERBASE    PACKAGE GWT_RIVERBASE   CONNECTED TO MODEL GWT_RIVERBASE    PACKAGE SSM              ON UNIT   1029 AT TIME STEP    110, STRESS PERIOD      2
 UBDSV06 SAVING              CNC IN MODEL GWT_RIVERBASE    PACKAGE GWT_RIVERBASE   CONNECTED TO MODEL GWT_RIVERBASE    PACKAGE CNC_0            ON UNIT   1029 AT TIME STEP    110, STRESS PERIOD      2
1
  CONCENTRATION IN LAYER   1 AT END OF TIME STEP 110 IN STRESS PERIOD    2
  ---------------------------------------------------------------------------

                1               2               3               4               5               6               7               8               9              10
 ................................................................................................................................................................
   1      1.00000         1.00000         1.00000         1.00000         1.00000         1.00000         1.00000         1.00000         1.00000         1.00000    
   2     0.999979         1.00000        0.999978         1.00000         1.00000         1.00000         1.00000         1.00000         1.00000         1.00000    
   3      1.00000        0.999978         1.00000         1.00000         1.00000         1.00000         1.00000         1.00000         1.00000         1.00000    
   4      1.00000         1.00000        0.999977         1.00000         1.00000         1.00000         1.00000         1.00000         1.00000         1.00000    
   5      1.00000         1.00003         1.00000        0.999976        0.999975         1.00000         1.00000         1.00000         1.00000         1.00000    
   6      1.00004         10.0000         1.00000        0.999976         1.00000        0.999974         1.00000         1.00000         1.00000         1.00000    
   7      1.00002         10.0000         1.00000         1.00000         1.00000         1.00000        0.999974         1.00000         1.00000         1.00000    
   8      1.00000         1.00002         1.00000         1.00000         1.00000         1.00000         1.00000        0.999973        0.999972         1.00000    
   9      1.00000         1.00000         1.00000         1.00000         1.00000         1.00000         1.00000        0.999972         1.00000         1.00000    
  10      1.00000         1.00000         1.00000         1.00000         1.00000         1.00000         1.00000         1.00000         1.00000         1.00000    
  11      1.00000         1.00000         1.00000         1.00000         1.00000         1.00000         1.00000         1.00000         1.00000         1.00000    
  12      1.00000         1.00000         1.00000         1.00000         1.00000         1.00000         1.00000         1.00000         1.00000         1.00000    
  13      1.00000         1.00000         1.00000         1.00000         1.00000         1.00000         1.00000         1.00000         1.00000         1.00000    
  14      1.00000         1.00000         1.00000         1.00000         1.00000         1.00000         1.00000         1.00000         1.00000         1.00000    
  15      1.00000         1.00000         1.00000         1.00000         1.00000         1.00000         1.00000         1.00000         1.00000         1.00000    
1
  CONCENTRATION IN LAYER   2 AT END OF TIME STEP 110 IN STRESS PERIOD    2
  ---------------------------------------------------------------------------

                1               2               3               4               5               6               7               8               9              10
 ................................................................................................................................................................
   1      1.00000         1.00000         1.00000         1.00000         1.00000         1.00000         1.00000         1.00000         1.00000         1.00000    
   2      1.00000         1.00000         1.00000         1.00000         1.00000         1.00000         1.00000         1.00000         1.00000         1.00000    
   3      1.00000         1.00000         1.00000         1.00000         1.00000         1.00000         1.00000         1.00000         1.00000         1.00000    
   4      1.00000         1.00000         1.00000         1.00000         1.00000         1.00000         1.00000         1.00000         1.00000         1.00000    
   5      1.00000         1.00000         1.00000         1.00000         1.00000         1.00000         1.00000         1.00000         1.00000         1.00000    
   6      1.00000         1.00001         1.00000         1.00000         1.00000         1.00000         1.00000         1.00000         1.00000         1.00000    
   7      1.00000         1.00000         1.00000         1.00000         1.00000         1.00000         1.00000         1.00000         1.00000         1.00000    
   8      1.00000         1.00000         1.00000         1.00000         1.00000         1.00000         1.00000         1.00000         1.00000         1.00000    
   9      1.00000         1.00000         1.00000         1.00000         1.00000         1.00000         1.00000         1.00000         1.00000         1.00000    
  10      1.00000         1.00000         1.00000         1.00000         1.00000         1.00000         1.00000         1.00000         1.00000         1.00000    
  11      1.00000         1.00000         1.00000         1.00000         1.00000         1.00000         1.00000         1.00000         1.00000         1.00000    
  12      1.00000         1.00000         1.00000         1.00000         1.00000         1.00000         1.00000         1.00000         1.00000         1.00000    
  13      1.00000         1.00000         1.00000         1.00000         1.00000         1.00000         1.00000         1.00000         1.00000         1.00000    
  14      1.00000         1.00000         1.00000         1.00000         1.00000         1.00000         1.00000         1.00000         1.00000         1.00000    
  15      1.00000         1.00000         1.00000         1.00000         1.00000         1.00000         1.00000         1.00000         1.00000         1.00000    
1
  CONCENTRATION IN LAYER   3 AT END OF TIME STEP 110 IN STRESS PERIOD    2
  ---------------------------------------------------------------------------

                1               2               3               4               5               6               7               8               9              10
 ................................................................................................................................................................
   1      1.00000         1.00000         1.00000         1.00000         1.00000         1.00000         1.00000         1.00000         1.00000         1.00000    
   2      1.00000         1.00000         1.00000         1.00000         1.00000         1.00000         1.00000         1.00000         1.00000         1.00000    
   3      1.00000         1.00000         1.00000         1.00000         1.00000         1.00000         1.00000         1.00000         1.00000         1.00000    
   4      1.00000         1.00000         1.00000         1.00000         1.00000         1.00000         1.00000         1.00000         1.00000         1.00000    
   5      1.00000         1.00000         1.00000         1.00000         1.00000         1.00000         1.00000         1.00000         1.00000         1.00000    
   6      1.00000         1.00000         1.00000         1.00000         1.00000         1.00000         1.00000         1.00000         1.00000         1.00000    
   7      1.00000         1.00000         1.00000         1.00000         1.00000         1.00000         1.00000         1.00000         1.00000         1.00000    
   8      1.00000         1.00000         1.00000         1.00000         1.00000         1.00000         1.00000         1.00000         1.00000         1.00000    
   9      1.00000         1.00000         1.00000         1.00000         1.00000         1.00000         1.00000         1.00000         1.00000         1.00000    
  10      1.00000         1.00000         1.00000         1.00000         1.00000         1.00000         1.00000         1.00000         1.00000         1.00000    
  11      1.00000         1.00000         1.00000         1.00000         1.00000         1.00000         1.00000         1.00000         1.00000         1.00000    
  12      1.00000         1.00000         1.00000         1.00000         1.00000         1.00000         1.00000         1.00000         1.00000         1.00000    
  13      1.00000         1.00000         1.00000         1.00000         1.00000         1.00000         1.00000         1.00000         1.00000         1.00000    
  14      1.00000         1.00000         1.00000         1.00000         1.00000         1.00000         1.00000         1.00000         1.00000         1.00000    
  15      1.00000         1.00000         1.00000         1.00000         1.00000         1.00000         1.00000         1.00000         1.00000         1.00000    

 CONCENTRATION WILL BE SAVED ON UNIT 1030 AT END OF TIME STEP  110, STRESS PERIOD    2


  MASS BUDGET FOR ENTIRE MODEL AT END OF TIME STEP  110, STRESS PERIOD   2
  ---------------------------------------------------------------------------------------------------

     CUMULATIVE MASS      M       RATES FOR THIS TIME STEP      M/T          PACKAGE NAME    
     ------------------                 ------------------------                     ----------------

           IN:                                      IN:
           ---                                      ---
     STORAGE-AQUEOUS =          20.8197       STORAGE-AQUEOUS =           2.0474     MST                              
                 RIV =           0.0000                   RIV =           0.0000     SSM_RIV-1                        
                 CHD =           0.0000                   CHD =           0.0000     SSM_CHD-1                        
                 CNC =           8.6743                   CNC =           0.8526     CNC_0                            

            TOTAL IN =          29.4941              TOTAL IN =           2.9001

          OUT:                                     OUT:
          ----                                     ----
     STORAGE-AQUEOUS =           9.1264       STORAGE-AQUEOUS =           0.8966     MST                              
                 RIV =           0.0000                   RIV =           0.0000     SSM_RIV-1                        
                 CHD =          19.5805                   CHD =           1.9260     SSM_CHD-1                        
                 CNC =           0.7872                   CNC =       7.7429E-02     CNC_0                            

           TOTAL OUT =          29.4941             TOTAL OUT =           2.9001

            IN - OUT =       2.8612E-09              IN - OUT =      -7.1352E-10

 PERCENT DISCREPANCY =           0.00     PERCENT DISCREPANCY =          -0.00




         TIME SUMMARY AT END OF TIME STEP  110 IN STRESS PERIOD    2
                    SECONDS     MINUTES      HOURS       DAYS        YEARS
                    -----------------------------------------------------------
   TIME STEP LENGTH  7200.0      120.00      2.0000     8.33333E-02 2.28154E-04
 STRESS PERIOD TIME 7.92000E+05  13200.      220.00      9.1667     2.50970E-02
         TOTAL TIME 8.78400E+05  14640.      244.00      10.167     2.78348E-02


end timestep


start timestep kper="2" kstp="111" mode="normal"

 UBDSV1 SAVING  STORAGE-AQUEOUS ON UNIT   1029 AT TIME STEP    111, STRESS PERIOD      2
 UBDSV1 SAVING     FLOW-JA-FACE ON UNIT   1029 AT TIME STEP    111, STRESS PERIOD      2
 UBDSV06 SAVING  SOURCE-SINK MIX IN MODEL GWT_RIVERBASE    PACKAGE GWT_RIVERBASE   CONNECTED TO MODEL GWT_RIVERBASE    PACKAGE SSM              ON UNIT   1029 AT TIME STEP    111, STRESS PERIOD      2
 UBDSV06 SAVING              CNC IN MODEL GWT_RIVERBASE    PACKAGE GWT_RIVERBASE   CONNECTED TO MODEL GWT_RIVERBASE    PACKAGE CNC_0            ON UNIT   1029 AT TIME STEP    111, STRESS PERIOD      2
1
  CONCENTRATION IN LAYER   1 AT END OF TIME STEP 111 IN STRESS PERIOD    2
  ---------------------------------------------------------------------------

                1               2               3               4               5               6               7               8               9              10
 ................................................................................................................................................................
   1      1.00000         1.00000         1.00000         1.00000         1.00000         1.00000         1.00000         1.00000         1.00000         1.00000    
   2     0.999978         1.00000        0.999978         1.00000         1.00000         1.00000         1.00000         1.00000         1.00000         1.00000    
   3      1.00000        0.999977         1.00000         1.00000         1.00000         1.00000         1.00000         1.00000         1.00000         1.00000    
   4      1.00000         1.00000        0.999977         1.00000         1.00000         1.00000         1.00000         1.00000         1.00000         1.00000    
   5      1.00000         1.00003         1.00000        0.999976        0.999975         1.00000         1.00000         1.00000         1.00000         1.00000    
   6      1.00004         10.0000         1.00000        0.999976         1.00000        0.999974         1.00000         1.00000         1.00000         1.00000    
   7      1.00002         10.0000         1.00000         1.00000         1.00000         1.00000        0.999974         1.00000         1.00000         1.00000    
   8      1.00000         1.00002         1.00000         1.00000         1.00000         1.00000         1.00000        0.999973        0.999972         1.00000    
   9      1.00000         1.00000         1.00000         1.00000         1.00000         1.00000         1.00000        0.999972         1.00000         1.00000    
  10      1.00000         1.00000         1.00000         1.00000         1.00000         1.00000         1.00000         1.00000         1.00000         1.00000    
  11      1.00000         1.00000         1.00000         1.00000         1.00000         1.00000         1.00000         1.00000         1.00000         1.00000    
  12      1.00000         1.00000         1.00000         1.00000         1.00000         1.00000         1.00000         1.00000         1.00000         1.00000    
  13      1.00000         1.00000         1.00000         1.00000         1.00000         1.00000         1.00000         1.00000         1.00000         1.00000    
  14      1.00000         1.00000         1.00000         1.00000         1.00000         1.00000         1.00000         1.00000         1.00000         1.00000    
  15      1.00000         1.00000         1.00000         1.00000         1.00000         1.00000         1.00000         1.00000         1.00000         1.00000    
1
  CONCENTRATION IN LAYER   2 AT END OF TIME STEP 111 IN STRESS PERIOD    2
  ---------------------------------------------------------------------------

                1               2               3               4               5               6               7               8               9              10
 ................................................................................................................................................................
   1      1.00000         1.00000         1.00000         1.00000         1.00000         1.00000         1.00000         1.00000         1.00000         1.00000    
   2      1.00000         1.00000         1.00000         1.00000         1.00000         1.00000         1.00000         1.00000         1.00000         1.00000    
   3      1.00000         1.00000         1.00000         1.00000         1.00000         1.00000         1.00000         1.00000         1.00000         1.00000    
   4      1.00000         1.00000         1.00000         1.00000         1.00000         1.00000         1.00000         1.00000         1.00000         1.00000    
   5      1.00000         1.00000         1.00000         1.00000         1.00000         1.00000         1.00000         1.00000         1.00000         1.00000    
   6      1.00000         1.00001         1.00000         1.00000         1.00000         1.00000         1.00000         1.00000         1.00000         1.00000    
   7      1.00000         1.00000         1.00000         1.00000         1.00000         1.00000         1.00000         1.00000         1.00000         1.00000    
   8      1.00000         1.00000         1.00000         1.00000         1.00000         1.00000         1.00000         1.00000         1.00000         1.00000    
   9      1.00000         1.00000         1.00000         1.00000         1.00000         1.00000         1.00000         1.00000         1.00000         1.00000    
  10      1.00000         1.00000         1.00000         1.00000         1.00000         1.00000         1.00000         1.00000         1.00000         1.00000    
  11      1.00000         1.00000         1.00000         1.00000         1.00000         1.00000         1.00000         1.00000         1.00000         1.00000    
  12      1.00000         1.00000         1.00000         1.00000         1.00000         1.00000         1.00000         1.00000         1.00000         1.00000    
  13      1.00000         1.00000         1.00000         1.00000         1.00000         1.00000         1.00000         1.00000         1.00000         1.00000    
  14      1.00000         1.00000         1.00000         1.00000         1.00000         1.00000         1.00000         1.00000         1.00000         1.00000    
  15      1.00000         1.00000         1.00000         1.00000         1.00000         1.00000         1.00000         1.00000         1.00000         1.00000    
1
  CONCENTRATION IN LAYER   3 AT END OF TIME STEP 111 IN STRESS PERIOD    2
  ---------------------------------------------------------------------------

                1               2               3               4               5               6               7               8               9              10
 ................................................................................................................................................................
   1      1.00000         1.00000         1.00000         1.00000         1.00000         1.00000         1.00000         1.00000         1.00000         1.00000    
   2      1.00000         1.00000         1.00000         1.00000         1.00000         1.00000         1.00000         1.00000         1.00000         1.00000    
   3      1.00000         1.00000         1.00000         1.00000         1.00000         1.00000         1.00000         1.00000         1.00000         1.00000    
   4      1.00000         1.00000         1.00000         1.00000         1.00000         1.00000         1.00000         1.00000         1.00000         1.00000    
   5      1.00000         1.00000         1.00000         1.00000         1.00000         1.00000         1.00000         1.00000         1.00000         1.00000    
   6      1.00000         1.00000         1.00000         1.00000         1.00000         1.00000         1.00000         1.00000         1.00000         1.00000    
   7      1.00000         1.00000         1.00000         1.00000         1.00000         1.00000         1.00000         1.00000         1.00000         1.00000    
   8      1.00000         1.00000         1.00000         1.00000         1.00000         1.00000         1.00000         1.00000         1.00000         1.00000    
   9      1.00000         1.00000         1.00000         1.00000         1.00000         1.00000         1.00000         1.00000         1.00000         1.00000    
  10      1.00000         1.00000         1.00000         1.00000         1.00000         1.00000         1.00000         1.00000         1.00000         1.00000    
  11      1.00000         1.00000         1.00000         1.00000         1.00000         1.00000         1.00000         1.00000         1.00000         1.00000    
  12      1.00000         1.00000         1.00000         1.00000         1.00000         1.00000         1.00000         1.00000         1.00000         1.00000    
  13      1.00000         1.00000         1.00000         1.00000         1.00000         1.00000         1.00000         1.00000         1.00000         1.00000    
  14      1.00000         1.00000         1.00000         1.00000         1.00000         1.00000         1.00000         1.00000         1.00000         1.00000    
  15      1.00000         1.00000         1.00000         1.00000         1.00000         1.00000         1.00000         1.00000         1.00000         1.00000    

 CONCENTRATION WILL BE SAVED ON UNIT 1030 AT END OF TIME STEP  111, STRESS PERIOD    2


  MASS BUDGET FOR ENTIRE MODEL AT END OF TIME STEP  111, STRESS PERIOD   2
  ---------------------------------------------------------------------------------------------------

     CUMULATIVE MASS      M       RATES FOR THIS TIME STEP      M/T          PACKAGE NAME    
     ------------------                 ------------------------                     ----------------

           IN:                                      IN:
           ---                                      ---
     STORAGE-AQUEOUS =          20.9903       STORAGE-AQUEOUS =           2.0474     MST                              
                 RIV =           0.0000                   RIV =           0.0000     SSM_RIV-1                        
                 CHD =           0.0000                   CHD =           0.0000     SSM_CHD-1                        
                 CNC =           8.7454                   CNC =           0.8526     CNC_0                            

            TOTAL IN =          29.7357              TOTAL IN =           2.9001

          OUT:                                     OUT:
          ----                                     ----
     STORAGE-AQUEOUS =           9.2011       STORAGE-AQUEOUS =           0.8967     MST                              
                 RIV =           0.0000                   RIV =           0.0000     SSM_RIV-1                        
                 CHD =          19.7410                   CHD =           1.9260     SSM_CHD-1                        
                 CNC =           0.7937                   CNC =       7.7428E-02     CNC_0                            

           TOTAL OUT =          29.7357             TOTAL OUT =           2.9001

            IN - OUT =       2.9593E-09              IN - OUT =       1.1764E-09

 PERCENT DISCREPANCY =           0.00     PERCENT DISCREPANCY =           0.00




         TIME SUMMARY AT END OF TIME STEP  111 IN STRESS PERIOD    2
                    SECONDS     MINUTES      HOURS       DAYS        YEARS
                    -----------------------------------------------------------
   TIME STEP LENGTH  7200.0      120.00      2.0000     8.33333E-02 2.28154E-04
 STRESS PERIOD TIME 7.99200E+05  13320.      222.00      9.2500     2.53251E-02
         TOTAL TIME 8.85600E+05  14760.      246.00      10.250     2.80630E-02


end timestep


start timestep kper="2" kstp="112" mode="normal"

 UBDSV1 SAVING  STORAGE-AQUEOUS ON UNIT   1029 AT TIME STEP    112, STRESS PERIOD      2
 UBDSV1 SAVING     FLOW-JA-FACE ON UNIT   1029 AT TIME STEP    112, STRESS PERIOD      2
 UBDSV06 SAVING  SOURCE-SINK MIX IN MODEL GWT_RIVERBASE    PACKAGE GWT_RIVERBASE   CONNECTED TO MODEL GWT_RIVERBASE    PACKAGE SSM              ON UNIT   1029 AT TIME STEP    112, STRESS PERIOD      2
 UBDSV06 SAVING              CNC IN MODEL GWT_RIVERBASE    PACKAGE GWT_RIVERBASE   CONNECTED TO MODEL GWT_RIVERBASE    PACKAGE CNC_0            ON UNIT   1029 AT TIME STEP    112, STRESS PERIOD      2
1
  CONCENTRATION IN LAYER   1 AT END OF TIME STEP 112 IN STRESS PERIOD    2
  ---------------------------------------------------------------------------

                1               2               3               4               5               6               7               8               9              10
 ................................................................................................................................................................
   1      1.00000         1.00000         1.00000         1.00000         1.00000         1.00000         1.00000         1.00000         1.00000         1.00000    
   2     0.999978         1.00000        0.999978         1.00000         1.00000         1.00000         1.00000         1.00000         1.00000         1.00000    
   3      1.00000        0.999977         1.00000         1.00000         1.00000         1.00000         1.00000         1.00000         1.00000         1.00000    
   4      1.00000         1.00000        0.999977         1.00000         1.00000         1.00000         1.00000         1.00000         1.00000         1.00000    
   5      1.00000         1.00003         1.00000        0.999976        0.999975         1.00000         1.00000         1.00000         1.00000         1.00000    
   6      1.00004         10.0000         1.00000        0.999975         1.00000        0.999974         1.00000         1.00000         1.00000         1.00000    
   7      1.00002         10.0000         1.00000         1.00000         1.00000         1.00000        0.999973         1.00000         1.00000         1.00000    
   8      1.00000         1.00002         1.00000         1.00000         1.00000         1.00000         1.00000        0.999973        0.999971         1.00000    
   9      1.00000         1.00000         1.00000         1.00000         1.00000         1.00000         1.00000        0.999972         1.00000         1.00000    
  10      1.00000         1.00000         1.00000         1.00000         1.00000         1.00000         1.00000         1.00000         1.00000         1.00000    
  11      1.00000         1.00000         1.00000         1.00000         1.00000         1.00000         1.00000         1.00000         1.00000         1.00000    
  12      1.00000         1.00000         1.00000         1.00000         1.00000         1.00000         1.00000         1.00000         1.00000         1.00000    
  13      1.00000         1.00000         1.00000         1.00000         1.00000         1.00000         1.00000         1.00000         1.00000         1.00000    
  14      1.00000         1.00000         1.00000         1.00000         1.00000         1.00000         1.00000         1.00000         1.00000         1.00000    
  15      1.00000         1.00000         1.00000         1.00000         1.00000         1.00000         1.00000         1.00000         1.00000         1.00000    
1
  CONCENTRATION IN LAYER   2 AT END OF TIME STEP 112 IN STRESS PERIOD    2
  ---------------------------------------------------------------------------

                1               2               3               4               5               6               7               8               9              10
 ................................................................................................................................................................
   1      1.00000         1.00000         1.00000         1.00000         1.00000         1.00000         1.00000         1.00000         1.00000         1.00000    
   2      1.00000         1.00000         1.00000         1.00000         1.00000         1.00000         1.00000         1.00000         1.00000         1.00000    
   3      1.00000         1.00000         1.00000         1.00000         1.00000         1.00000         1.00000         1.00000         1.00000         1.00000    
   4      1.00000         1.00000         1.00000         1.00000         1.00000         1.00000         1.00000         1.00000         1.00000         1.00000    
   5      1.00000         1.00000         1.00000         1.00000         1.00000         1.00000         1.00000         1.00000         1.00000         1.00000    
   6      1.00000         1.00001         1.00000         1.00000         1.00000         1.00000         1.00000         1.00000         1.00000         1.00000    
   7      1.00000         1.00000         1.00000         1.00000         1.00000         1.00000         1.00000         1.00000         1.00000         1.00000    
   8      1.00000         1.00000         1.00000         1.00000         1.00000         1.00000         1.00000         1.00000         1.00000         1.00000    
   9      1.00000         1.00000         1.00000         1.00000         1.00000         1.00000         1.00000         1.00000         1.00000         1.00000    
  10      1.00000         1.00000         1.00000         1.00000         1.00000         1.00000         1.00000         1.00000         1.00000         1.00000    
  11      1.00000         1.00000         1.00000         1.00000         1.00000         1.00000         1.00000         1.00000         1.00000         1.00000    
  12      1.00000         1.00000         1.00000         1.00000         1.00000         1.00000         1.00000         1.00000         1.00000         1.00000    
  13      1.00000         1.00000         1.00000         1.00000         1.00000         1.00000         1.00000         1.00000         1.00000         1.00000    
  14      1.00000         1.00000         1.00000         1.00000         1.00000         1.00000         1.00000         1.00000         1.00000         1.00000    
  15      1.00000         1.00000         1.00000         1.00000         1.00000         1.00000         1.00000         1.00000         1.00000         1.00000    
1
  CONCENTRATION IN LAYER   3 AT END OF TIME STEP 112 IN STRESS PERIOD    2
  ---------------------------------------------------------------------------

                1               2               3               4               5               6               7               8               9              10
 ................................................................................................................................................................
   1      1.00000         1.00000         1.00000         1.00000         1.00000         1.00000         1.00000         1.00000         1.00000         1.00000    
   2      1.00000         1.00000         1.00000         1.00000         1.00000         1.00000         1.00000         1.00000         1.00000         1.00000    
   3      1.00000         1.00000         1.00000         1.00000         1.00000         1.00000         1.00000         1.00000         1.00000         1.00000    
   4      1.00000         1.00000         1.00000         1.00000         1.00000         1.00000         1.00000         1.00000         1.00000         1.00000    
   5      1.00000         1.00000         1.00000         1.00000         1.00000         1.00000         1.00000         1.00000         1.00000         1.00000    
   6      1.00000         1.00000         1.00000         1.00000         1.00000         1.00000         1.00000         1.00000         1.00000         1.00000    
   7      1.00000         1.00000         1.00000         1.00000         1.00000         1.00000         1.00000         1.00000         1.00000         1.00000    
   8      1.00000         1.00000         1.00000         1.00000         1.00000         1.00000         1.00000         1.00000         1.00000         1.00000    
   9      1.00000         1.00000         1.00000         1.00000         1.00000         1.00000         1.00000         1.00000         1.00000         1.00000    
  10      1.00000         1.00000         1.00000         1.00000         1.00000         1.00000         1.00000         1.00000         1.00000         1.00000    
  11      1.00000         1.00000         1.00000         1.00000         1.00000         1.00000         1.00000         1.00000         1.00000         1.00000    
  12      1.00000         1.00000         1.00000         1.00000         1.00000         1.00000         1.00000         1.00000         1.00000         1.00000    
  13      1.00000         1.00000         1.00000         1.00000         1.00000         1.00000         1.00000         1.00000         1.00000         1.00000    
  14      1.00000         1.00000         1.00000         1.00000         1.00000         1.00000         1.00000         1.00000         1.00000         1.00000    
  15      1.00000         1.00000         1.00000         1.00000         1.00000         1.00000         1.00000         1.00000         1.00000         1.00000    

 CONCENTRATION WILL BE SAVED ON UNIT 1030 AT END OF TIME STEP  112, STRESS PERIOD    2


  MASS BUDGET FOR ENTIRE MODEL AT END OF TIME STEP  112, STRESS PERIOD   2
  ---------------------------------------------------------------------------------------------------

     CUMULATIVE MASS      M       RATES FOR THIS TIME STEP      M/T          PACKAGE NAME    
     ------------------                 ------------------------                     ----------------

           IN:                                      IN:
           ---                                      ---
     STORAGE-AQUEOUS =          21.1610       STORAGE-AQUEOUS =           2.0474     MST                              
                 RIV =           0.0000                   RIV =           0.0000     SSM_RIV-1                        
                 CHD =           0.0000                   CHD =           0.0000     SSM_CHD-1                        
                 CNC =           8.8164                   CNC =           0.8526     CNC_0                            

            TOTAL IN =          29.9774              TOTAL IN =           2.9001

          OUT:                                     OUT:
          ----                                     ----
     STORAGE-AQUEOUS =           9.2758       STORAGE-AQUEOUS =           0.8967     MST                              
                 RIV =           0.0000                   RIV =           0.0000     SSM_RIV-1                        
                 CHD =          19.9015                   CHD =           1.9260     SSM_CHD-1                        
                 CNC =           0.8002                   CNC =       7.7428E-02     CNC_0                            

           TOTAL OUT =          29.9774             TOTAL OUT =           2.9001

            IN - OUT =       2.8137E-09              IN - OUT =      -1.7474E-09

 PERCENT DISCREPANCY =           0.00     PERCENT DISCREPANCY =          -0.00




         TIME SUMMARY AT END OF TIME STEP  112 IN STRESS PERIOD    2
                    SECONDS     MINUTES      HOURS       DAYS        YEARS
                    -----------------------------------------------------------
   TIME STEP LENGTH  7200.0      120.00      2.0000     8.33333E-02 2.28154E-04
 STRESS PERIOD TIME 8.06400E+05  13440.      224.00      9.3333     2.55533E-02
         TOTAL TIME 8.92800E+05  14880.      248.00      10.333     2.82911E-02


end timestep


start timestep kper="2" kstp="113" mode="normal"

 UBDSV1 SAVING  STORAGE-AQUEOUS ON UNIT   1029 AT TIME STEP    113, STRESS PERIOD      2
 UBDSV1 SAVING     FLOW-JA-FACE ON UNIT   1029 AT TIME STEP    113, STRESS PERIOD      2
 UBDSV06 SAVING  SOURCE-SINK MIX IN MODEL GWT_RIVERBASE    PACKAGE GWT_RIVERBASE   CONNECTED TO MODEL GWT_RIVERBASE    PACKAGE SSM              ON UNIT   1029 AT TIME STEP    113, STRESS PERIOD      2
 UBDSV06 SAVING              CNC IN MODEL GWT_RIVERBASE    PACKAGE GWT_RIVERBASE   CONNECTED TO MODEL GWT_RIVERBASE    PACKAGE CNC_0            ON UNIT   1029 AT TIME STEP    113, STRESS PERIOD      2
1
  CONCENTRATION IN LAYER   1 AT END OF TIME STEP 113 IN STRESS PERIOD    2
  ---------------------------------------------------------------------------

                1               2               3               4               5               6               7               8               9              10
 ................................................................................................................................................................
   1      1.00000         1.00000         1.00000         1.00000         1.00000         1.00000         1.00000         1.00000         1.00000         1.00000    
   2     0.999978         1.00000        0.999978         1.00000         1.00000         1.00000         1.00000         1.00000         1.00000         1.00000    
   3      1.00000        0.999977         1.00000         1.00000         1.00000         1.00000         1.00000         1.00000         1.00000         1.00000    
   4      1.00000         1.00000        0.999976         1.00000         1.00000         1.00000         1.00000         1.00000         1.00000         1.00000    
   5      1.00000         1.00003         1.00000        0.999976        0.999975         1.00000         1.00000         1.00000         1.00000         1.00000    
   6      1.00004         10.0000         1.00000        0.999975         1.00000        0.999974         1.00000         1.00000         1.00000         1.00000    
   7      1.00002         10.0000         1.00000         1.00000         1.00000         1.00000        0.999973         1.00000         1.00000         1.00000    
   8      1.00000         1.00002         1.00000         1.00000         1.00000         1.00000         1.00000        0.999972        0.999971         1.00000    
   9      1.00000         1.00000         1.00000         1.00000         1.00000         1.00000         1.00000        0.999972         1.00000         1.00000    
  10      1.00000         1.00000         1.00000         1.00000         1.00000         1.00000         1.00000         1.00000         1.00000         1.00000    
  11      1.00000         1.00000         1.00000         1.00000         1.00000         1.00000         1.00000         1.00000         1.00000         1.00000    
  12      1.00000         1.00000         1.00000         1.00000         1.00000         1.00000         1.00000         1.00000         1.00000         1.00000    
  13      1.00000         1.00000         1.00000         1.00000         1.00000         1.00000         1.00000         1.00000         1.00000         1.00000    
  14      1.00000         1.00000         1.00000         1.00000         1.00000         1.00000         1.00000         1.00000         1.00000         1.00000    
  15      1.00000         1.00000         1.00000         1.00000         1.00000         1.00000         1.00000         1.00000         1.00000         1.00000    
1
  CONCENTRATION IN LAYER   2 AT END OF TIME STEP 113 IN STRESS PERIOD    2
  ---------------------------------------------------------------------------

                1               2               3               4               5               6               7               8               9              10
 ................................................................................................................................................................
   1      1.00000         1.00000         1.00000         1.00000         1.00000         1.00000         1.00000         1.00000         1.00000         1.00000    
   2      1.00000         1.00000         1.00000         1.00000         1.00000         1.00000         1.00000         1.00000         1.00000         1.00000    
   3      1.00000         1.00000         1.00000         1.00000         1.00000         1.00000         1.00000         1.00000         1.00000         1.00000    
   4      1.00000         1.00000         1.00000         1.00000         1.00000         1.00000         1.00000         1.00000         1.00000         1.00000    
   5      1.00000         1.00000         1.00000         1.00000         1.00000         1.00000         1.00000         1.00000         1.00000         1.00000    
   6      1.00000         1.00001         1.00000         1.00000         1.00000         1.00000         1.00000         1.00000         1.00000         1.00000    
   7      1.00000         1.00000         1.00000         1.00000         1.00000         1.00000         1.00000         1.00000         1.00000         1.00000    
   8      1.00000         1.00000         1.00000         1.00000         1.00000         1.00000         1.00000         1.00000         1.00000         1.00000    
   9      1.00000         1.00000         1.00000         1.00000         1.00000         1.00000         1.00000         1.00000         1.00000         1.00000    
  10      1.00000         1.00000         1.00000         1.00000         1.00000         1.00000         1.00000         1.00000         1.00000         1.00000    
  11      1.00000         1.00000         1.00000         1.00000         1.00000         1.00000         1.00000         1.00000         1.00000         1.00000    
  12      1.00000         1.00000         1.00000         1.00000         1.00000         1.00000         1.00000         1.00000         1.00000         1.00000    
  13      1.00000         1.00000         1.00000         1.00000         1.00000         1.00000         1.00000         1.00000         1.00000         1.00000    
  14      1.00000         1.00000         1.00000         1.00000         1.00000         1.00000         1.00000         1.00000         1.00000         1.00000    
  15      1.00000         1.00000         1.00000         1.00000         1.00000         1.00000         1.00000         1.00000         1.00000         1.00000    
1
  CONCENTRATION IN LAYER   3 AT END OF TIME STEP 113 IN STRESS PERIOD    2
  ---------------------------------------------------------------------------

                1               2               3               4               5               6               7               8               9              10
 ................................................................................................................................................................
   1      1.00000         1.00000         1.00000         1.00000         1.00000         1.00000         1.00000         1.00000         1.00000         1.00000    
   2      1.00000         1.00000         1.00000         1.00000         1.00000         1.00000         1.00000         1.00000         1.00000         1.00000    
   3      1.00000         1.00000         1.00000         1.00000         1.00000         1.00000         1.00000         1.00000         1.00000         1.00000    
   4      1.00000         1.00000         1.00000         1.00000         1.00000         1.00000         1.00000         1.00000         1.00000         1.00000    
   5      1.00000         1.00000         1.00000         1.00000         1.00000         1.00000         1.00000         1.00000         1.00000         1.00000    
   6      1.00000         1.00000         1.00000         1.00000         1.00000         1.00000         1.00000         1.00000         1.00000         1.00000    
   7      1.00000         1.00000         1.00000         1.00000         1.00000         1.00000         1.00000         1.00000         1.00000         1.00000    
   8      1.00000         1.00000         1.00000         1.00000         1.00000         1.00000         1.00000         1.00000         1.00000         1.00000    
   9      1.00000         1.00000         1.00000         1.00000         1.00000         1.00000         1.00000         1.00000         1.00000         1.00000    
  10      1.00000         1.00000         1.00000         1.00000         1.00000         1.00000         1.00000         1.00000         1.00000         1.00000    
  11      1.00000         1.00000         1.00000         1.00000         1.00000         1.00000         1.00000         1.00000         1.00000         1.00000    
  12      1.00000         1.00000         1.00000         1.00000         1.00000         1.00000         1.00000         1.00000         1.00000         1.00000    
  13      1.00000         1.00000         1.00000         1.00000         1.00000         1.00000         1.00000         1.00000         1.00000         1.00000    
  14      1.00000         1.00000         1.00000         1.00000         1.00000         1.00000         1.00000         1.00000         1.00000         1.00000    
  15      1.00000         1.00000         1.00000         1.00000         1.00000         1.00000         1.00000         1.00000         1.00000         1.00000    

 CONCENTRATION WILL BE SAVED ON UNIT 1030 AT END OF TIME STEP  113, STRESS PERIOD    2


  MASS BUDGET FOR ENTIRE MODEL AT END OF TIME STEP  113, STRESS PERIOD   2
  ---------------------------------------------------------------------------------------------------

     CUMULATIVE MASS      M       RATES FOR THIS TIME STEP      M/T          PACKAGE NAME    
     ------------------                 ------------------------                     ----------------

           IN:                                      IN:
           ---                                      ---
     STORAGE-AQUEOUS =          21.3316       STORAGE-AQUEOUS =           2.0474     MST                              
                 RIV =           0.0000                   RIV =           0.0000     SSM_RIV-1                        
                 CHD =           0.0000                   CHD =           0.0000     SSM_CHD-1                        
                 CNC =           8.8875                   CNC =           0.8526     CNC_0                            

            TOTAL IN =          30.2191              TOTAL IN =           2.9001

          OUT:                                     OUT:
          ----                                     ----
     STORAGE-AQUEOUS =           9.3505       STORAGE-AQUEOUS =           0.8967     MST                              
                 RIV =           0.0000                   RIV =           0.0000     SSM_RIV-1                        
                 CHD =          20.0619                   CHD =           1.9260     SSM_CHD-1                        
                 CNC =           0.8066                   CNC =       7.7428E-02     CNC_0                            

           TOTAL OUT =          30.2191             TOTAL OUT =           2.9001

            IN - OUT =       2.9454E-09              IN - OUT =       1.5802E-09

 PERCENT DISCREPANCY =           0.00     PERCENT DISCREPANCY =           0.00




         TIME SUMMARY AT END OF TIME STEP  113 IN STRESS PERIOD    2
                    SECONDS     MINUTES      HOURS       DAYS        YEARS
                    -----------------------------------------------------------
   TIME STEP LENGTH  7200.0      120.00      2.0000     8.33333E-02 2.28154E-04
 STRESS PERIOD TIME 8.13600E+05  13560.      226.00      9.4167     2.57814E-02
         TOTAL TIME 9.00000E+05  15000.      250.00      10.417     2.85193E-02


end timestep


start timestep kper="2" kstp="114" mode="normal"

 UBDSV1 SAVING  STORAGE-AQUEOUS ON UNIT   1029 AT TIME STEP    114, STRESS PERIOD      2
 UBDSV1 SAVING     FLOW-JA-FACE ON UNIT   1029 AT TIME STEP    114, STRESS PERIOD      2
 UBDSV06 SAVING  SOURCE-SINK MIX IN MODEL GWT_RIVERBASE    PACKAGE GWT_RIVERBASE   CONNECTED TO MODEL GWT_RIVERBASE    PACKAGE SSM              ON UNIT   1029 AT TIME STEP    114, STRESS PERIOD      2
 UBDSV06 SAVING              CNC IN MODEL GWT_RIVERBASE    PACKAGE GWT_RIVERBASE   CONNECTED TO MODEL GWT_RIVERBASE    PACKAGE CNC_0            ON UNIT   1029 AT TIME STEP    114, STRESS PERIOD      2
1
  CONCENTRATION IN LAYER   1 AT END OF TIME STEP 114 IN STRESS PERIOD    2
  ---------------------------------------------------------------------------

                1               2               3               4               5               6               7               8               9              10
 ................................................................................................................................................................
   1      1.00000         1.00000         1.00000         1.00000         1.00000         1.00000         1.00000         1.00000         1.00000         1.00000    
   2     0.999978         1.00000        0.999977         1.00000         1.00000         1.00000         1.00000         1.00000         1.00000         1.00000    
   3      1.00000        0.999977         1.00000         1.00000         1.00000         1.00000         1.00000         1.00000         1.00000         1.00000    
   4      1.00000         1.00000        0.999976         1.00000         1.00000         1.00000         1.00000         1.00000         1.00000         1.00000    
   5      1.00000         1.00003         1.00000        0.999976        0.999974         1.00000         1.00000         1.00000         1.00000         1.00000    
   6      1.00004         10.0000         1.00000        0.999975         1.00000        0.999974         1.00000         1.00000         1.00000         1.00000    
   7      1.00002         10.0000         1.00000         1.00000         1.00000         1.00000        0.999973         1.00000         1.00000         1.00000    
   8      1.00000         1.00002         1.00000         1.00000         1.00000         1.00000         1.00000        0.999972        0.999971         1.00000    
   9      1.00000         1.00000         1.00000         1.00000         1.00000         1.00000         1.00000        0.999972         1.00000         1.00000    
  10      1.00000         1.00000         1.00000         1.00000         1.00000         1.00000         1.00000         1.00000         1.00000         1.00000    
  11      1.00000         1.00000         1.00000         1.00000         1.00000         1.00000         1.00000         1.00000         1.00000         1.00000    
  12      1.00000         1.00000         1.00000         1.00000         1.00000         1.00000         1.00000         1.00000         1.00000         1.00000    
  13      1.00000         1.00000         1.00000         1.00000         1.00000         1.00000         1.00000         1.00000         1.00000         1.00000    
  14      1.00000         1.00000         1.00000         1.00000         1.00000         1.00000         1.00000         1.00000         1.00000         1.00000    
  15      1.00000         1.00000         1.00000         1.00000         1.00000         1.00000         1.00000         1.00000         1.00000         1.00000    
1
  CONCENTRATION IN LAYER   2 AT END OF TIME STEP 114 IN STRESS PERIOD    2
  ---------------------------------------------------------------------------

                1               2               3               4               5               6               7               8               9              10
 ................................................................................................................................................................
   1      1.00000         1.00000         1.00000         1.00000         1.00000         1.00000         1.00000         1.00000         1.00000         1.00000    
   2      1.00000         1.00000         1.00000         1.00000         1.00000         1.00000         1.00000         1.00000         1.00000         1.00000    
   3      1.00000         1.00000         1.00000         1.00000         1.00000         1.00000         1.00000         1.00000         1.00000         1.00000    
   4      1.00000         1.00000         1.00000         1.00000         1.00000         1.00000         1.00000         1.00000         1.00000         1.00000    
   5      1.00000         1.00000         1.00000         1.00000         1.00000         1.00000         1.00000         1.00000         1.00000         1.00000    
   6      1.00000         1.00001         1.00000         1.00000         1.00000         1.00000         1.00000         1.00000         1.00000         1.00000    
   7      1.00000         1.00000         1.00000         1.00000         1.00000         1.00000         1.00000         1.00000         1.00000         1.00000    
   8      1.00000         1.00000         1.00000         1.00000         1.00000         1.00000         1.00000         1.00000         1.00000         1.00000    
   9      1.00000         1.00000         1.00000         1.00000         1.00000         1.00000         1.00000         1.00000         1.00000         1.00000    
  10      1.00000         1.00000         1.00000         1.00000         1.00000         1.00000         1.00000         1.00000         1.00000         1.00000    
  11      1.00000         1.00000         1.00000         1.00000         1.00000         1.00000         1.00000         1.00000         1.00000         1.00000    
  12      1.00000         1.00000         1.00000         1.00000         1.00000         1.00000         1.00000         1.00000         1.00000         1.00000    
  13      1.00000         1.00000         1.00000         1.00000         1.00000         1.00000         1.00000         1.00000         1.00000         1.00000    
  14      1.00000         1.00000         1.00000         1.00000         1.00000         1.00000         1.00000         1.00000         1.00000         1.00000    
  15      1.00000         1.00000         1.00000         1.00000         1.00000         1.00000         1.00000         1.00000         1.00000         1.00000    
1
  CONCENTRATION IN LAYER   3 AT END OF TIME STEP 114 IN STRESS PERIOD    2
  ---------------------------------------------------------------------------

                1               2               3               4               5               6               7               8               9              10
 ................................................................................................................................................................
   1      1.00000         1.00000         1.00000         1.00000         1.00000         1.00000         1.00000         1.00000         1.00000         1.00000    
   2      1.00000         1.00000         1.00000         1.00000         1.00000         1.00000         1.00000         1.00000         1.00000         1.00000    
   3      1.00000         1.00000         1.00000         1.00000         1.00000         1.00000         1.00000         1.00000         1.00000         1.00000    
   4      1.00000         1.00000         1.00000         1.00000         1.00000         1.00000         1.00000         1.00000         1.00000         1.00000    
   5      1.00000         1.00000         1.00000         1.00000         1.00000         1.00000         1.00000         1.00000         1.00000         1.00000    
   6      1.00000         1.00000         1.00000         1.00000         1.00000         1.00000         1.00000         1.00000         1.00000         1.00000    
   7      1.00000         1.00000         1.00000         1.00000         1.00000         1.00000         1.00000         1.00000         1.00000         1.00000    
   8      1.00000         1.00000         1.00000         1.00000         1.00000         1.00000         1.00000         1.00000         1.00000         1.00000    
   9      1.00000         1.00000         1.00000         1.00000         1.00000         1.00000         1.00000         1.00000         1.00000         1.00000    
  10      1.00000         1.00000         1.00000         1.00000         1.00000         1.00000         1.00000         1.00000         1.00000         1.00000    
  11      1.00000         1.00000         1.00000         1.00000         1.00000         1.00000         1.00000         1.00000         1.00000         1.00000    
  12      1.00000         1.00000         1.00000         1.00000         1.00000         1.00000         1.00000         1.00000         1.00000         1.00000    
  13      1.00000         1.00000         1.00000         1.00000         1.00000         1.00000         1.00000         1.00000         1.00000         1.00000    
  14      1.00000         1.00000         1.00000         1.00000         1.00000         1.00000         1.00000         1.00000         1.00000         1.00000    
  15      1.00000         1.00000         1.00000         1.00000         1.00000         1.00000         1.00000         1.00000         1.00000         1.00000    

 CONCENTRATION WILL BE SAVED ON UNIT 1030 AT END OF TIME STEP  114, STRESS PERIOD    2


  MASS BUDGET FOR ENTIRE MODEL AT END OF TIME STEP  114, STRESS PERIOD   2
  ---------------------------------------------------------------------------------------------------

     CUMULATIVE MASS      M       RATES FOR THIS TIME STEP      M/T          PACKAGE NAME    
     ------------------                 ------------------------                     ----------------

           IN:                                      IN:
           ---                                      ---
     STORAGE-AQUEOUS =          21.5022       STORAGE-AQUEOUS =           2.0474     MST                              
                 RIV =           0.0000                   RIV =           0.0000     SSM_RIV-1                        
                 CHD =           0.0000                   CHD =           0.0000     SSM_CHD-1                        
                 CNC =           8.9585                   CNC =           0.8526     CNC_0                            

            TOTAL IN =          30.4607              TOTAL IN =           2.9001

          OUT:                                     OUT:
          ----                                     ----
     STORAGE-AQUEOUS =           9.4252       STORAGE-AQUEOUS =           0.8967     MST                              
                 RIV =           0.0000                   RIV =           0.0000     SSM_RIV-1                        
                 CHD =          20.2224                   CHD =           1.9260     SSM_CHD-1                        
                 CNC =           0.8131                   CNC =       7.7428E-02     CNC_0                            

           TOTAL OUT =          30.4607             TOTAL OUT =           2.9001

            IN - OUT =       3.0315E-09              IN - OUT =       1.0335E-09

 PERCENT DISCREPANCY =           0.00     PERCENT DISCREPANCY =           0.00




         TIME SUMMARY AT END OF TIME STEP  114 IN STRESS PERIOD    2
                    SECONDS     MINUTES      HOURS       DAYS        YEARS
                    -----------------------------------------------------------
   TIME STEP LENGTH  7200.0      120.00      2.0000     8.33333E-02 2.28154E-04
 STRESS PERIOD TIME 8.20800E+05  13680.      228.00      9.5000     2.60096E-02
         TOTAL TIME 9.07200E+05  15120.      252.00      10.500     2.87474E-02


end timestep


start timestep kper="2" kstp="115" mode="normal"

 UBDSV1 SAVING  STORAGE-AQUEOUS ON UNIT   1029 AT TIME STEP    115, STRESS PERIOD      2
 UBDSV1 SAVING     FLOW-JA-FACE ON UNIT   1029 AT TIME STEP    115, STRESS PERIOD      2
 UBDSV06 SAVING  SOURCE-SINK MIX IN MODEL GWT_RIVERBASE    PACKAGE GWT_RIVERBASE   CONNECTED TO MODEL GWT_RIVERBASE    PACKAGE SSM              ON UNIT   1029 AT TIME STEP    115, STRESS PERIOD      2
 UBDSV06 SAVING              CNC IN MODEL GWT_RIVERBASE    PACKAGE GWT_RIVERBASE   CONNECTED TO MODEL GWT_RIVERBASE    PACKAGE CNC_0            ON UNIT   1029 AT TIME STEP    115, STRESS PERIOD      2
1
  CONCENTRATION IN LAYER   1 AT END OF TIME STEP 115 IN STRESS PERIOD    2
  ---------------------------------------------------------------------------

                1               2               3               4               5               6               7               8               9              10
 ................................................................................................................................................................
   1      1.00000         1.00000         1.00000         1.00000         1.00000         1.00000         1.00000         1.00000         1.00000         1.00000    
   2     0.999978         1.00000        0.999977         1.00000         1.00000         1.00000         1.00000         1.00000         1.00000         1.00000    
   3      1.00000        0.999977         1.00000         1.00000         1.00000         1.00000         1.00000         1.00000         1.00000         1.00000    
   4      1.00000         1.00000        0.999976         1.00000         1.00000         1.00000         1.00000         1.00000         1.00000         1.00000    
   5      1.00000         1.00003         1.00000        0.999975        0.999974         1.00000         1.00000         1.00000         1.00000         1.00000    
   6      1.00004         10.0000         1.00000        0.999975         1.00000        0.999973         1.00000         1.00000         1.00000         1.00000    
   7      1.00002         10.0000         1.00000         1.00000         1.00000         1.00000        0.999973         1.00000         1.00000         1.00000    
   8      1.00000         1.00002         1.00000         1.00000         1.00000         1.00000         1.00000        0.999972        0.999971         1.00000    
   9      1.00000         1.00000         1.00000         1.00000         1.00000         1.00000         1.00000        0.999971         1.00000         1.00000    
  10      1.00000         1.00000         1.00000         1.00000         1.00000         1.00000         1.00000         1.00000         1.00000         1.00000    
  11      1.00000         1.00000         1.00000         1.00000         1.00000         1.00000         1.00000         1.00000         1.00000         1.00000    
  12      1.00000         1.00000         1.00000         1.00000         1.00000         1.00000         1.00000         1.00000         1.00000         1.00000    
  13      1.00000         1.00000         1.00000         1.00000         1.00000         1.00000         1.00000         1.00000         1.00000         1.00000    
  14      1.00000         1.00000         1.00000         1.00000         1.00000         1.00000         1.00000         1.00000         1.00000         1.00000    
  15      1.00000         1.00000         1.00000         1.00000         1.00000         1.00000         1.00000         1.00000         1.00000         1.00000    
1
  CONCENTRATION IN LAYER   2 AT END OF TIME STEP 115 IN STRESS PERIOD    2
  ---------------------------------------------------------------------------

                1               2               3               4               5               6               7               8               9              10
 ................................................................................................................................................................
   1      1.00000         1.00000         1.00000         1.00000         1.00000         1.00000         1.00000         1.00000         1.00000         1.00000    
   2      1.00000         1.00000         1.00000         1.00000         1.00000         1.00000         1.00000         1.00000         1.00000         1.00000    
   3      1.00000         1.00000         1.00000         1.00000         1.00000         1.00000         1.00000         1.00000         1.00000         1.00000    
   4      1.00000         1.00000         1.00000         1.00000         1.00000         1.00000         1.00000         1.00000         1.00000         1.00000    
   5      1.00000         1.00000         1.00000         1.00000         1.00000         1.00000         1.00000         1.00000         1.00000         1.00000    
   6      1.00000         1.00001         1.00000         1.00000         1.00000         1.00000         1.00000         1.00000         1.00000         1.00000    
   7      1.00000         1.00000         1.00000         1.00000         1.00000         1.00000         1.00000         1.00000         1.00000         1.00000    
   8      1.00000         1.00000         1.00000         1.00000         1.00000         1.00000         1.00000         1.00000         1.00000         1.00000    
   9      1.00000         1.00000         1.00000         1.00000         1.00000         1.00000         1.00000         1.00000         1.00000         1.00000    
  10      1.00000         1.00000         1.00000         1.00000         1.00000         1.00000         1.00000         1.00000         1.00000         1.00000    
  11      1.00000         1.00000         1.00000         1.00000         1.00000         1.00000         1.00000         1.00000         1.00000         1.00000    
  12      1.00000         1.00000         1.00000         1.00000         1.00000         1.00000         1.00000         1.00000         1.00000         1.00000    
  13      1.00000         1.00000         1.00000         1.00000         1.00000         1.00000         1.00000         1.00000         1.00000         1.00000    
  14      1.00000         1.00000         1.00000         1.00000         1.00000         1.00000         1.00000         1.00000         1.00000         1.00000    
  15      1.00000         1.00000         1.00000         1.00000         1.00000         1.00000         1.00000         1.00000         1.00000         1.00000    
1
  CONCENTRATION IN LAYER   3 AT END OF TIME STEP 115 IN STRESS PERIOD    2
  ---------------------------------------------------------------------------

                1               2               3               4               5               6               7               8               9              10
 ................................................................................................................................................................
   1      1.00000         1.00000         1.00000         1.00000         1.00000         1.00000         1.00000         1.00000         1.00000         1.00000    
   2      1.00000         1.00000         1.00000         1.00000         1.00000         1.00000         1.00000         1.00000         1.00000         1.00000    
   3      1.00000         1.00000         1.00000         1.00000         1.00000         1.00000         1.00000         1.00000         1.00000         1.00000    
   4      1.00000         1.00000         1.00000         1.00000         1.00000         1.00000         1.00000         1.00000         1.00000         1.00000    
   5      1.00000         1.00000         1.00000         1.00000         1.00000         1.00000         1.00000         1.00000         1.00000         1.00000    
   6      1.00000         1.00000         1.00000         1.00000         1.00000         1.00000         1.00000         1.00000         1.00000         1.00000    
   7      1.00000         1.00000         1.00000         1.00000         1.00000         1.00000         1.00000         1.00000         1.00000         1.00000    
   8      1.00000         1.00000         1.00000         1.00000         1.00000         1.00000         1.00000         1.00000         1.00000         1.00000    
   9      1.00000         1.00000         1.00000         1.00000         1.00000         1.00000         1.00000         1.00000         1.00000         1.00000    
  10      1.00000         1.00000         1.00000         1.00000         1.00000         1.00000         1.00000         1.00000         1.00000         1.00000    
  11      1.00000         1.00000         1.00000         1.00000         1.00000         1.00000         1.00000         1.00000         1.00000         1.00000    
  12      1.00000         1.00000         1.00000         1.00000         1.00000         1.00000         1.00000         1.00000         1.00000         1.00000    
  13      1.00000         1.00000         1.00000         1.00000         1.00000         1.00000         1.00000         1.00000         1.00000         1.00000    
  14      1.00000         1.00000         1.00000         1.00000         1.00000         1.00000         1.00000         1.00000         1.00000         1.00000    
  15      1.00000         1.00000         1.00000         1.00000         1.00000         1.00000         1.00000         1.00000         1.00000         1.00000    

 CONCENTRATION WILL BE SAVED ON UNIT 1030 AT END OF TIME STEP  115, STRESS PERIOD    2


  MASS BUDGET FOR ENTIRE MODEL AT END OF TIME STEP  115, STRESS PERIOD   2
  ---------------------------------------------------------------------------------------------------

     CUMULATIVE MASS      M       RATES FOR THIS TIME STEP      M/T          PACKAGE NAME    
     ------------------                 ------------------------                     ----------------

           IN:                                      IN:
           ---                                      ---
     STORAGE-AQUEOUS =          21.6728       STORAGE-AQUEOUS =           2.0474     MST                              
                 RIV =           0.0000                   RIV =           0.0000     SSM_RIV-1                        
                 CHD =           0.0000                   CHD =           0.0000     SSM_CHD-1                        
                 CNC =           9.0296                   CNC =           0.8526     CNC_0                            

            TOTAL IN =          30.7024              TOTAL IN =           2.9001

          OUT:                                     OUT:
          ----                                     ----
     STORAGE-AQUEOUS =           9.5000       STORAGE-AQUEOUS =           0.8967     MST                              
                 RIV =           0.0000                   RIV =           0.0000     SSM_RIV-1                        
                 CHD =          20.3829                   CHD =           1.9260     SSM_CHD-1                        
                 CNC =           0.8195                   CNC =       7.7428E-02     CNC_0                            

           TOTAL OUT =          30.7024             TOTAL OUT =           2.9001

            IN - OUT =       3.1278E-09              IN - OUT =       1.1553E-09

 PERCENT DISCREPANCY =           0.00     PERCENT DISCREPANCY =           0.00




         TIME SUMMARY AT END OF TIME STEP  115 IN STRESS PERIOD    2
                    SECONDS     MINUTES      HOURS       DAYS        YEARS
                    -----------------------------------------------------------
   TIME STEP LENGTH  7200.0      120.00      2.0000     8.33333E-02 2.28154E-04
 STRESS PERIOD TIME 8.28000E+05  13800.      230.00      9.5833     2.62377E-02
         TOTAL TIME 9.14400E+05  15240.      254.00      10.583     2.89756E-02


end timestep


start timestep kper="2" kstp="116" mode="normal"

 UBDSV1 SAVING  STORAGE-AQUEOUS ON UNIT   1029 AT TIME STEP    116, STRESS PERIOD      2
 UBDSV1 SAVING     FLOW-JA-FACE ON UNIT   1029 AT TIME STEP    116, STRESS PERIOD      2
 UBDSV06 SAVING  SOURCE-SINK MIX IN MODEL GWT_RIVERBASE    PACKAGE GWT_RIVERBASE   CONNECTED TO MODEL GWT_RIVERBASE    PACKAGE SSM              ON UNIT   1029 AT TIME STEP    116, STRESS PERIOD      2
 UBDSV06 SAVING              CNC IN MODEL GWT_RIVERBASE    PACKAGE GWT_RIVERBASE   CONNECTED TO MODEL GWT_RIVERBASE    PACKAGE CNC_0            ON UNIT   1029 AT TIME STEP    116, STRESS PERIOD      2
1
  CONCENTRATION IN LAYER   1 AT END OF TIME STEP 116 IN STRESS PERIOD    2
  ---------------------------------------------------------------------------

                1               2               3               4               5               6               7               8               9              10
 ................................................................................................................................................................
   1      1.00000         1.00000         1.00000         1.00000         1.00000         1.00000         1.00000         1.00000         1.00000         1.00000    
   2     0.999978         1.00000        0.999977         1.00000         1.00000         1.00000         1.00000         1.00000         1.00000         1.00000    
   3      1.00000        0.999976         1.00000         1.00000         1.00000         1.00000         1.00000         1.00000         1.00000         1.00000    
   4      1.00000         1.00000        0.999976         1.00000         1.00000         1.00000         1.00000         1.00000         1.00000         1.00000    
   5      1.00000         1.00003         1.00000        0.999975        0.999974         1.00000         1.00000         1.00000         1.00000         1.00000    
   6      1.00004         10.0000         1.00000        0.999975         1.00000        0.999973         1.00000         1.00000         1.00000         1.00000    
   7      1.00002         10.0000         1.00000         1.00000         1.00000         1.00000        0.999973         1.00000         1.00000         1.00000    
   8      1.00000         1.00003         1.00000         1.00000         1.00000         1.00000         1.00000        0.999972        0.999970         1.00000    
   9      1.00000         1.00000         1.00000         1.00000         1.00000         1.00000         1.00000        0.999971         1.00000         1.00000    
  10      1.00000         1.00000         1.00000         1.00000         1.00000         1.00000         1.00000         1.00000         1.00000         1.00000    
  11      1.00000         1.00000         1.00000         1.00000         1.00000         1.00000         1.00000         1.00000         1.00000         1.00000    
  12      1.00000         1.00000         1.00000         1.00000         1.00000         1.00000         1.00000         1.00000         1.00000         1.00000    
  13      1.00000         1.00000         1.00000         1.00000         1.00000         1.00000         1.00000         1.00000         1.00000         1.00000    
  14      1.00000         1.00000         1.00000         1.00000         1.00000         1.00000         1.00000         1.00000         1.00000         1.00000    
  15      1.00000         1.00000         1.00000         1.00000         1.00000         1.00000         1.00000         1.00000         1.00000         1.00000    
1
  CONCENTRATION IN LAYER   2 AT END OF TIME STEP 116 IN STRESS PERIOD    2
  ---------------------------------------------------------------------------

                1               2               3               4               5               6               7               8               9              10
 ................................................................................................................................................................
   1      1.00000         1.00000         1.00000         1.00000         1.00000         1.00000         1.00000         1.00000         1.00000         1.00000    
   2      1.00000         1.00000         1.00000         1.00000         1.00000         1.00000         1.00000         1.00000         1.00000         1.00000    
   3      1.00000         1.00000         1.00000         1.00000         1.00000         1.00000         1.00000         1.00000         1.00000         1.00000    
   4      1.00000         1.00000         1.00000         1.00000         1.00000         1.00000         1.00000         1.00000         1.00000         1.00000    
   5      1.00000         1.00000         1.00000         1.00000         1.00000         1.00000         1.00000         1.00000         1.00000         1.00000    
   6      1.00000         1.00001         1.00000         1.00000         1.00000         1.00000         1.00000         1.00000         1.00000         1.00000    
   7      1.00000         1.00000         1.00000         1.00000         1.00000         1.00000         1.00000         1.00000         1.00000         1.00000    
   8      1.00000         1.00000         1.00000         1.00000         1.00000         1.00000         1.00000         1.00000         1.00000         1.00000    
   9      1.00000         1.00000         1.00000         1.00000         1.00000         1.00000         1.00000         1.00000         1.00000         1.00000    
  10      1.00000         1.00000         1.00000         1.00000         1.00000         1.00000         1.00000         1.00000         1.00000         1.00000    
  11      1.00000         1.00000         1.00000         1.00000         1.00000         1.00000         1.00000         1.00000         1.00000         1.00000    
  12      1.00000         1.00000         1.00000         1.00000         1.00000         1.00000         1.00000         1.00000         1.00000         1.00000    
  13      1.00000         1.00000         1.00000         1.00000         1.00000         1.00000         1.00000         1.00000         1.00000         1.00000    
  14      1.00000         1.00000         1.00000         1.00000         1.00000         1.00000         1.00000         1.00000         1.00000         1.00000    
  15      1.00000         1.00000         1.00000         1.00000         1.00000         1.00000         1.00000         1.00000         1.00000         1.00000    
1
  CONCENTRATION IN LAYER   3 AT END OF TIME STEP 116 IN STRESS PERIOD    2
  ---------------------------------------------------------------------------

                1               2               3               4               5               6               7               8               9              10
 ................................................................................................................................................................
   1      1.00000         1.00000         1.00000         1.00000         1.00000         1.00000         1.00000         1.00000         1.00000         1.00000    
   2      1.00000         1.00000         1.00000         1.00000         1.00000         1.00000         1.00000         1.00000         1.00000         1.00000    
   3      1.00000         1.00000         1.00000         1.00000         1.00000         1.00000         1.00000         1.00000         1.00000         1.00000    
   4      1.00000         1.00000         1.00000         1.00000         1.00000         1.00000         1.00000         1.00000         1.00000         1.00000    
   5      1.00000         1.00000         1.00000         1.00000         1.00000         1.00000         1.00000         1.00000         1.00000         1.00000    
   6      1.00000         1.00000         1.00000         1.00000         1.00000         1.00000         1.00000         1.00000         1.00000         1.00000    
   7      1.00000         1.00000         1.00000         1.00000         1.00000         1.00000         1.00000         1.00000         1.00000         1.00000    
   8      1.00000         1.00000         1.00000         1.00000         1.00000         1.00000         1.00000         1.00000         1.00000         1.00000    
   9      1.00000         1.00000         1.00000         1.00000         1.00000         1.00000         1.00000         1.00000         1.00000         1.00000    
  10      1.00000         1.00000         1.00000         1.00000         1.00000         1.00000         1.00000         1.00000         1.00000         1.00000    
  11      1.00000         1.00000         1.00000         1.00000         1.00000         1.00000         1.00000         1.00000         1.00000         1.00000    
  12      1.00000         1.00000         1.00000         1.00000         1.00000         1.00000         1.00000         1.00000         1.00000         1.00000    
  13      1.00000         1.00000         1.00000         1.00000         1.00000         1.00000         1.00000         1.00000         1.00000         1.00000    
  14      1.00000         1.00000         1.00000         1.00000         1.00000         1.00000         1.00000         1.00000         1.00000         1.00000    
  15      1.00000         1.00000         1.00000         1.00000         1.00000         1.00000         1.00000         1.00000         1.00000         1.00000    

 CONCENTRATION WILL BE SAVED ON UNIT 1030 AT END OF TIME STEP  116, STRESS PERIOD    2


  MASS BUDGET FOR ENTIRE MODEL AT END OF TIME STEP  116, STRESS PERIOD   2
  ---------------------------------------------------------------------------------------------------

     CUMULATIVE MASS      M       RATES FOR THIS TIME STEP      M/T          PACKAGE NAME    
     ------------------                 ------------------------                     ----------------

           IN:                                      IN:
           ---                                      ---
     STORAGE-AQUEOUS =          21.8434       STORAGE-AQUEOUS =           2.0474     MST                              
                 RIV =           0.0000                   RIV =           0.0000     SSM_RIV-1                        
                 CHD =           0.0000                   CHD =           0.0000     SSM_CHD-1                        
                 CNC =           9.1007                   CNC =           0.8526     CNC_0                            

            TOTAL IN =          30.9441              TOTAL IN =           2.9001

          OUT:                                     OUT:
          ----                                     ----
     STORAGE-AQUEOUS =           9.5747       STORAGE-AQUEOUS =           0.8967     MST                              
                 RIV =           0.0000                   RIV =           0.0000     SSM_RIV-1                        
                 CHD =          20.5434                   CHD =           1.9260     SSM_CHD-1                        
                 CNC =           0.8260                   CNC =       7.7428E-02     CNC_0                            

           TOTAL OUT =          30.9441             TOTAL OUT =           2.9001

            IN - OUT =       3.0454E-09              IN - OUT =      -9.8843E-10

 PERCENT DISCREPANCY =           0.00     PERCENT DISCREPANCY =          -0.00




         TIME SUMMARY AT END OF TIME STEP  116 IN STRESS PERIOD    2
                    SECONDS     MINUTES      HOURS       DAYS        YEARS
                    -----------------------------------------------------------
   TIME STEP LENGTH  7200.0      120.00      2.0000     8.33333E-02 2.28154E-04
 STRESS PERIOD TIME 8.35200E+05  13920.      232.00      9.6667     2.64659E-02
         TOTAL TIME 9.21600E+05  15360.      256.00      10.667     2.92037E-02


end timestep


start timestep kper="2" kstp="117" mode="normal"

 UBDSV1 SAVING  STORAGE-AQUEOUS ON UNIT   1029 AT TIME STEP    117, STRESS PERIOD      2
 UBDSV1 SAVING     FLOW-JA-FACE ON UNIT   1029 AT TIME STEP    117, STRESS PERIOD      2
 UBDSV06 SAVING  SOURCE-SINK MIX IN MODEL GWT_RIVERBASE    PACKAGE GWT_RIVERBASE   CONNECTED TO MODEL GWT_RIVERBASE    PACKAGE SSM              ON UNIT   1029 AT TIME STEP    117, STRESS PERIOD      2
 UBDSV06 SAVING              CNC IN MODEL GWT_RIVERBASE    PACKAGE GWT_RIVERBASE   CONNECTED TO MODEL GWT_RIVERBASE    PACKAGE CNC_0            ON UNIT   1029 AT TIME STEP    117, STRESS PERIOD      2
1
  CONCENTRATION IN LAYER   1 AT END OF TIME STEP 117 IN STRESS PERIOD    2
  ---------------------------------------------------------------------------

                1               2               3               4               5               6               7               8               9              10
 ................................................................................................................................................................
   1      1.00000         1.00000         1.00000         1.00000         1.00000         1.00000         1.00000         1.00000         1.00000         1.00000    
   2     0.999977         1.00000        0.999977         1.00000         1.00000         1.00000         1.00000         1.00000         1.00000         1.00000    
   3      1.00000        0.999976         1.00000         1.00000         1.00000         1.00000         1.00000         1.00000         1.00000         1.00000    
   4      1.00000         1.00000        0.999976         1.00000         1.00000         1.00000         1.00000         1.00000         1.00000         1.00000    
   5      1.00000         1.00003         1.00000        0.999975        0.999974         1.00000         1.00000         1.00000         1.00000         1.00000    
   6      1.00004         10.0000         1.00000        0.999974         1.00000        0.999973         1.00000         1.00000         1.00000         1.00000    
   7      1.00002         10.0000         1.00000         1.00000         1.00000         1.00000        0.999972         1.00000         1.00000         1.00000    
   8      1.00000         1.00003         1.00000         1.00000         1.00000         1.00000         1.00000        0.999972        0.999970         1.00000    
   9      1.00000         1.00000         1.00000         1.00000         1.00000         1.00000         1.00000        0.999971         1.00000         1.00000    
  10      1.00000         1.00000         1.00000         1.00000         1.00000         1.00000         1.00000         1.00000         1.00000         1.00000    
  11      1.00000         1.00000         1.00000         1.00000         1.00000         1.00000         1.00000         1.00000         1.00000         1.00000    
  12      1.00000         1.00000         1.00000         1.00000         1.00000         1.00000         1.00000         1.00000         1.00000         1.00000    
  13      1.00000         1.00000         1.00000         1.00000         1.00000         1.00000         1.00000         1.00000         1.00000         1.00000    
  14      1.00000         1.00000         1.00000         1.00000         1.00000         1.00000         1.00000         1.00000         1.00000         1.00000    
  15      1.00000         1.00000         1.00000         1.00000         1.00000         1.00000         1.00000         1.00000         1.00000         1.00000    
1
  CONCENTRATION IN LAYER   2 AT END OF TIME STEP 117 IN STRESS PERIOD    2
  ---------------------------------------------------------------------------

                1               2               3               4               5               6               7               8               9              10
 ................................................................................................................................................................
   1      1.00000         1.00000         1.00000         1.00000         1.00000         1.00000         1.00000         1.00000         1.00000         1.00000    
   2      1.00000         1.00000         1.00000         1.00000         1.00000         1.00000         1.00000         1.00000         1.00000         1.00000    
   3      1.00000         1.00000         1.00000         1.00000         1.00000         1.00000         1.00000         1.00000         1.00000         1.00000    
   4      1.00000         1.00000         1.00000         1.00000         1.00000         1.00000         1.00000         1.00000         1.00000         1.00000    
   5      1.00000         1.00000         1.00000         1.00000         1.00000         1.00000         1.00000         1.00000         1.00000         1.00000    
   6      1.00000         1.00001         1.00000         1.00000         1.00000         1.00000         1.00000         1.00000         1.00000         1.00000    
   7      1.00000         1.00000         1.00000         1.00000         1.00000         1.00000         1.00000         1.00000         1.00000         1.00000    
   8      1.00000         1.00000         1.00000         1.00000         1.00000         1.00000         1.00000         1.00000         1.00000         1.00000    
   9      1.00000         1.00000         1.00000         1.00000         1.00000         1.00000         1.00000         1.00000         1.00000         1.00000    
  10      1.00000         1.00000         1.00000         1.00000         1.00000         1.00000         1.00000         1.00000         1.00000         1.00000    
  11      1.00000         1.00000         1.00000         1.00000         1.00000         1.00000         1.00000         1.00000         1.00000         1.00000    
  12      1.00000         1.00000         1.00000         1.00000         1.00000         1.00000         1.00000         1.00000         1.00000         1.00000    
  13      1.00000         1.00000         1.00000         1.00000         1.00000         1.00000         1.00000         1.00000         1.00000         1.00000    
  14      1.00000         1.00000         1.00000         1.00000         1.00000         1.00000         1.00000         1.00000         1.00000         1.00000    
  15      1.00000         1.00000         1.00000         1.00000         1.00000         1.00000         1.00000         1.00000         1.00000         1.00000    
1
  CONCENTRATION IN LAYER   3 AT END OF TIME STEP 117 IN STRESS PERIOD    2
  ---------------------------------------------------------------------------

                1               2               3               4               5               6               7               8               9              10
 ................................................................................................................................................................
   1      1.00000         1.00000         1.00000         1.00000         1.00000         1.00000         1.00000         1.00000         1.00000         1.00000    
   2      1.00000         1.00000         1.00000         1.00000         1.00000         1.00000         1.00000         1.00000         1.00000         1.00000    
   3      1.00000         1.00000         1.00000         1.00000         1.00000         1.00000         1.00000         1.00000         1.00000         1.00000    
   4      1.00000         1.00000         1.00000         1.00000         1.00000         1.00000         1.00000         1.00000         1.00000         1.00000    
   5      1.00000         1.00000         1.00000         1.00000         1.00000         1.00000         1.00000         1.00000         1.00000         1.00000    
   6      1.00000         1.00000         1.00000         1.00000         1.00000         1.00000         1.00000         1.00000         1.00000         1.00000    
   7      1.00000         1.00000         1.00000         1.00000         1.00000         1.00000         1.00000         1.00000         1.00000         1.00000    
   8      1.00000         1.00000         1.00000         1.00000         1.00000         1.00000         1.00000         1.00000         1.00000         1.00000    
   9      1.00000         1.00000         1.00000         1.00000         1.00000         1.00000         1.00000         1.00000         1.00000         1.00000    
  10      1.00000         1.00000         1.00000         1.00000         1.00000         1.00000         1.00000         1.00000         1.00000         1.00000    
  11      1.00000         1.00000         1.00000         1.00000         1.00000         1.00000         1.00000         1.00000         1.00000         1.00000    
  12      1.00000         1.00000         1.00000         1.00000         1.00000         1.00000         1.00000         1.00000         1.00000         1.00000    
  13      1.00000         1.00000         1.00000         1.00000         1.00000         1.00000         1.00000         1.00000         1.00000         1.00000    
  14      1.00000         1.00000         1.00000         1.00000         1.00000         1.00000         1.00000         1.00000         1.00000         1.00000    
  15      1.00000         1.00000         1.00000         1.00000         1.00000         1.00000         1.00000         1.00000         1.00000         1.00000    

 CONCENTRATION WILL BE SAVED ON UNIT 1030 AT END OF TIME STEP  117, STRESS PERIOD    2


  MASS BUDGET FOR ENTIRE MODEL AT END OF TIME STEP  117, STRESS PERIOD   2
  ---------------------------------------------------------------------------------------------------

     CUMULATIVE MASS      M       RATES FOR THIS TIME STEP      M/T          PACKAGE NAME    
     ------------------                 ------------------------                     ----------------

           IN:                                      IN:
           ---                                      ---
     STORAGE-AQUEOUS =          22.0141       STORAGE-AQUEOUS =           2.0474     MST                              
                 RIV =           0.0000                   RIV =           0.0000     SSM_RIV-1                        
                 CHD =           0.0000                   CHD =           0.0000     SSM_CHD-1                        
                 CNC =           9.1717                   CNC =           0.8526     CNC_0                            

            TOTAL IN =          31.1858              TOTAL IN =           2.9001

          OUT:                                     OUT:
          ----                                     ----
     STORAGE-AQUEOUS =           9.6494       STORAGE-AQUEOUS =           0.8967     MST                              
                 RIV =           0.0000                   RIV =           0.0000     SSM_RIV-1                        
                 CHD =          20.7039                   CHD =           1.9260     SSM_CHD-1                        
                 CNC =           0.8324                   CNC =       7.7428E-02     CNC_0                            

           TOTAL OUT =          31.1858             TOTAL OUT =           2.9001

            IN - OUT =       3.1170E-09              IN - OUT =       8.5979E-10

 PERCENT DISCREPANCY =           0.00     PERCENT DISCREPANCY =           0.00




         TIME SUMMARY AT END OF TIME STEP  117 IN STRESS PERIOD    2
                    SECONDS     MINUTES      HOURS       DAYS        YEARS
                    -----------------------------------------------------------
   TIME STEP LENGTH  7200.0      120.00      2.0000     8.33333E-02 2.28154E-04
 STRESS PERIOD TIME 8.42400E+05  14040.      234.00      9.7500     2.66940E-02
         TOTAL TIME 9.28800E+05  15480.      258.00      10.750     2.94319E-02


end timestep


start timestep kper="2" kstp="118" mode="normal"

 UBDSV1 SAVING  STORAGE-AQUEOUS ON UNIT   1029 AT TIME STEP    118, STRESS PERIOD      2
 UBDSV1 SAVING     FLOW-JA-FACE ON UNIT   1029 AT TIME STEP    118, STRESS PERIOD      2
 UBDSV06 SAVING  SOURCE-SINK MIX IN MODEL GWT_RIVERBASE    PACKAGE GWT_RIVERBASE   CONNECTED TO MODEL GWT_RIVERBASE    PACKAGE SSM              ON UNIT   1029 AT TIME STEP    118, STRESS PERIOD      2
 UBDSV06 SAVING              CNC IN MODEL GWT_RIVERBASE    PACKAGE GWT_RIVERBASE   CONNECTED TO MODEL GWT_RIVERBASE    PACKAGE CNC_0            ON UNIT   1029 AT TIME STEP    118, STRESS PERIOD      2
1
  CONCENTRATION IN LAYER   1 AT END OF TIME STEP 118 IN STRESS PERIOD    2
  ---------------------------------------------------------------------------

                1               2               3               4               5               6               7               8               9              10
 ................................................................................................................................................................
   1      1.00000         1.00000         1.00000         1.00000         1.00000         1.00000         1.00000         1.00000         1.00000         1.00000    
   2     0.999977         1.00000        0.999977         1.00000         1.00000         1.00000         1.00000         1.00000         1.00000         1.00000    
   3      1.00000        0.999976         1.00000         1.00000         1.00000         1.00000         1.00000         1.00000         1.00000         1.00000    
   4      1.00000         1.00000        0.999975         1.00000         1.00000         1.00000         1.00000         1.00000         1.00000         1.00000    
   5      1.00000         1.00003         1.00000        0.999975        0.999973         1.00000         1.00000         1.00000         1.00000         1.00000    
   6      1.00004         10.0000         1.00000        0.999974         1.00000        0.999973         1.00000         1.00000         1.00000         1.00000    
   7      1.00002         10.0000         1.00000         1.00000         1.00000         1.00000        0.999972         1.00000         1.00000         1.00000    
   8      1.00000         1.00003         1.00000         1.00000         1.00000         1.00000         1.00000        0.999971        0.999970         1.00000    
   9      1.00000         1.00000         1.00000         1.00000         1.00000         1.00000         1.00000        0.999971         1.00000         1.00000    
  10      1.00000         1.00000         1.00000         1.00000         1.00000         1.00000         1.00000         1.00000         1.00000         1.00000    
  11      1.00000         1.00000         1.00000         1.00000         1.00000         1.00000         1.00000         1.00000         1.00000         1.00000    
  12      1.00000         1.00000         1.00000         1.00000         1.00000         1.00000         1.00000         1.00000         1.00000         1.00000    
  13      1.00000         1.00000         1.00000         1.00000         1.00000         1.00000         1.00000         1.00000         1.00000         1.00000    
  14      1.00000         1.00000         1.00000         1.00000         1.00000         1.00000         1.00000         1.00000         1.00000         1.00000    
  15      1.00000         1.00000         1.00000         1.00000         1.00000         1.00000         1.00000         1.00000         1.00000         1.00000    
1
  CONCENTRATION IN LAYER   2 AT END OF TIME STEP 118 IN STRESS PERIOD    2
  ---------------------------------------------------------------------------

                1               2               3               4               5               6               7               8               9              10
 ................................................................................................................................................................
   1      1.00000         1.00000         1.00000         1.00000         1.00000         1.00000         1.00000         1.00000         1.00000         1.00000    
   2      1.00000         1.00000         1.00000         1.00000         1.00000         1.00000         1.00000         1.00000         1.00000         1.00000    
   3      1.00000         1.00000         1.00000         1.00000         1.00000         1.00000         1.00000         1.00000         1.00000         1.00000    
   4      1.00000         1.00000         1.00000         1.00000         1.00000         1.00000         1.00000         1.00000         1.00000         1.00000    
   5      1.00000         1.00000         1.00000         1.00000         1.00000         1.00000         1.00000         1.00000         1.00000         1.00000    
   6      1.00000         1.00001         1.00000         1.00000         1.00000         1.00000         1.00000         1.00000         1.00000         1.00000    
   7      1.00000         1.00000         1.00000         1.00000         1.00000         1.00000         1.00000         1.00000         1.00000         1.00000    
   8      1.00000         1.00000         1.00000         1.00000         1.00000         1.00000         1.00000         1.00000         1.00000         1.00000    
   9      1.00000         1.00000         1.00000         1.00000         1.00000         1.00000         1.00000         1.00000         1.00000         1.00000    
  10      1.00000         1.00000         1.00000         1.00000         1.00000         1.00000         1.00000         1.00000         1.00000         1.00000    
  11      1.00000         1.00000         1.00000         1.00000         1.00000         1.00000         1.00000         1.00000         1.00000         1.00000    
  12      1.00000         1.00000         1.00000         1.00000         1.00000         1.00000         1.00000         1.00000         1.00000         1.00000    
  13      1.00000         1.00000         1.00000         1.00000         1.00000         1.00000         1.00000         1.00000         1.00000         1.00000    
  14      1.00000         1.00000         1.00000         1.00000         1.00000         1.00000         1.00000         1.00000         1.00000         1.00000    
  15      1.00000         1.00000         1.00000         1.00000         1.00000         1.00000         1.00000         1.00000         1.00000         1.00000    
1
  CONCENTRATION IN LAYER   3 AT END OF TIME STEP 118 IN STRESS PERIOD    2
  ---------------------------------------------------------------------------

                1               2               3               4               5               6               7               8               9              10
 ................................................................................................................................................................
   1      1.00000         1.00000         1.00000         1.00000         1.00000         1.00000         1.00000         1.00000         1.00000         1.00000    
   2      1.00000         1.00000         1.00000         1.00000         1.00000         1.00000         1.00000         1.00000         1.00000         1.00000    
   3      1.00000         1.00000         1.00000         1.00000         1.00000         1.00000         1.00000         1.00000         1.00000         1.00000    
   4      1.00000         1.00000         1.00000         1.00000         1.00000         1.00000         1.00000         1.00000         1.00000         1.00000    
   5      1.00000         1.00000         1.00000         1.00000         1.00000         1.00000         1.00000         1.00000         1.00000         1.00000    
   6      1.00000         1.00000         1.00000         1.00000         1.00000         1.00000         1.00000         1.00000         1.00000         1.00000    
   7      1.00000         1.00000         1.00000         1.00000         1.00000         1.00000         1.00000         1.00000         1.00000         1.00000    
   8      1.00000         1.00000         1.00000         1.00000         1.00000         1.00000         1.00000         1.00000         1.00000         1.00000    
   9      1.00000         1.00000         1.00000         1.00000         1.00000         1.00000         1.00000         1.00000         1.00000         1.00000    
  10      1.00000         1.00000         1.00000         1.00000         1.00000         1.00000         1.00000         1.00000         1.00000         1.00000    
  11      1.00000         1.00000         1.00000         1.00000         1.00000         1.00000         1.00000         1.00000         1.00000         1.00000    
  12      1.00000         1.00000         1.00000         1.00000         1.00000         1.00000         1.00000         1.00000         1.00000         1.00000    
  13      1.00000         1.00000         1.00000         1.00000         1.00000         1.00000         1.00000         1.00000         1.00000         1.00000    
  14      1.00000         1.00000         1.00000         1.00000         1.00000         1.00000         1.00000         1.00000         1.00000         1.00000    
  15      1.00000         1.00000         1.00000         1.00000         1.00000         1.00000         1.00000         1.00000         1.00000         1.00000    

 CONCENTRATION WILL BE SAVED ON UNIT 1030 AT END OF TIME STEP  118, STRESS PERIOD    2


  MASS BUDGET FOR ENTIRE MODEL AT END OF TIME STEP  118, STRESS PERIOD   2
  ---------------------------------------------------------------------------------------------------

     CUMULATIVE MASS      M       RATES FOR THIS TIME STEP      M/T          PACKAGE NAME    
     ------------------                 ------------------------                     ----------------

           IN:                                      IN:
           ---                                      ---
     STORAGE-AQUEOUS =          22.1847       STORAGE-AQUEOUS =           2.0474     MST                              
                 RIV =           0.0000                   RIV =           0.0000     SSM_RIV-1                        
                 CHD =           0.0000                   CHD =           0.0000     SSM_CHD-1                        
                 CNC =           9.2428                   CNC =           0.8526     CNC_0                            

            TOTAL IN =          31.4274              TOTAL IN =           2.9001

          OUT:                                     OUT:
          ----                                     ----
     STORAGE-AQUEOUS =           9.7241       STORAGE-AQUEOUS =           0.8967     MST                              
                 RIV =           0.0000                   RIV =           0.0000     SSM_RIV-1                        
                 CHD =          20.8644                   CHD =           1.9260     SSM_CHD-1                        
                 CNC =           0.8389                   CNC =       7.7428E-02     CNC_0                            

           TOTAL OUT =          31.4274             TOTAL OUT =           2.9001

            IN - OUT =       3.2053E-09              IN - OUT =       1.0590E-09

 PERCENT DISCREPANCY =           0.00     PERCENT DISCREPANCY =           0.00




         TIME SUMMARY AT END OF TIME STEP  118 IN STRESS PERIOD    2
                    SECONDS     MINUTES      HOURS       DAYS        YEARS
                    -----------------------------------------------------------
   TIME STEP LENGTH  7200.0      120.00      2.0000     8.33333E-02 2.28154E-04
 STRESS PERIOD TIME 8.49600E+05  14160.      236.00      9.8333     2.69222E-02
         TOTAL TIME 9.36000E+05  15600.      260.00      10.833     2.96601E-02


end timestep


start timestep kper="2" kstp="119" mode="normal"

 UBDSV1 SAVING  STORAGE-AQUEOUS ON UNIT   1029 AT TIME STEP    119, STRESS PERIOD      2
 UBDSV1 SAVING     FLOW-JA-FACE ON UNIT   1029 AT TIME STEP    119, STRESS PERIOD      2
 UBDSV06 SAVING  SOURCE-SINK MIX IN MODEL GWT_RIVERBASE    PACKAGE GWT_RIVERBASE   CONNECTED TO MODEL GWT_RIVERBASE    PACKAGE SSM              ON UNIT   1029 AT TIME STEP    119, STRESS PERIOD      2
 UBDSV06 SAVING              CNC IN MODEL GWT_RIVERBASE    PACKAGE GWT_RIVERBASE   CONNECTED TO MODEL GWT_RIVERBASE    PACKAGE CNC_0            ON UNIT   1029 AT TIME STEP    119, STRESS PERIOD      2
1
  CONCENTRATION IN LAYER   1 AT END OF TIME STEP 119 IN STRESS PERIOD    2
  ---------------------------------------------------------------------------

                1               2               3               4               5               6               7               8               9              10
 ................................................................................................................................................................
   1      1.00000         1.00000         1.00000         1.00000         1.00000         1.00000         1.00000         1.00000         1.00000         1.00000    
   2     0.999977         1.00000        0.999977         1.00000         1.00000         1.00000         1.00000         1.00000         1.00000         1.00000    
   3      1.00000        0.999976         1.00000         1.00000         1.00000         1.00000         1.00000         1.00000         1.00000         1.00000    
   4      1.00000         1.00000        0.999975         1.00000         1.00000         1.00000         1.00000         1.00000         1.00000         1.00000    
   5      1.00000         1.00003         1.00000        0.999975        0.999973         1.00000         1.00000         1.00000         1.00000         1.00000    
   6      1.00004         10.0000         1.00000        0.999974         1.00000        0.999973         1.00000         1.00000         1.00000         1.00000    
   7      1.00002         10.0000         1.00000         1.00000         1.00000         1.00000        0.999972         1.00000         1.00000         1.00000    
   8      1.00000         1.00003         1.00000         1.00000         1.00000         1.00000         1.00000        0.999971        0.999970         1.00000    
   9      1.00000         1.00000         1.00000         1.00000         1.00000         1.00000         1.00000        0.999970         1.00000         1.00000    
  10      1.00000         1.00000         1.00000         1.00000         1.00000         1.00000         1.00000         1.00000         1.00000         1.00000    
  11      1.00000         1.00000         1.00000         1.00000         1.00000         1.00000         1.00000         1.00000         1.00000         1.00000    
  12      1.00000         1.00000         1.00000         1.00000         1.00000         1.00000         1.00000         1.00000         1.00000         1.00000    
  13      1.00000         1.00000         1.00000         1.00000         1.00000         1.00000         1.00000         1.00000         1.00000         1.00000    
  14      1.00000         1.00000         1.00000         1.00000         1.00000         1.00000         1.00000         1.00000         1.00000         1.00000    
  15      1.00000         1.00000         1.00000         1.00000         1.00000         1.00000         1.00000         1.00000         1.00000         1.00000    
1
  CONCENTRATION IN LAYER   2 AT END OF TIME STEP 119 IN STRESS PERIOD    2
  ---------------------------------------------------------------------------

                1               2               3               4               5               6               7               8               9              10
 ................................................................................................................................................................
   1      1.00000         1.00000         1.00000         1.00000         1.00000         1.00000         1.00000         1.00000         1.00000         1.00000    
   2      1.00000         1.00000         1.00000         1.00000         1.00000         1.00000         1.00000         1.00000         1.00000         1.00000    
   3      1.00000         1.00000         1.00000         1.00000         1.00000         1.00000         1.00000         1.00000         1.00000         1.00000    
   4      1.00000         1.00000         1.00000         1.00000         1.00000         1.00000         1.00000         1.00000         1.00000         1.00000    
   5      1.00000         1.00000         1.00000         1.00000         1.00000         1.00000         1.00000         1.00000         1.00000         1.00000    
   6      1.00000         1.00001         1.00000         1.00000         1.00000         1.00000         1.00000         1.00000         1.00000         1.00000    
   7      1.00000         1.00000         1.00000         1.00000         1.00000         1.00000         1.00000         1.00000         1.00000         1.00000    
   8      1.00000         1.00000         1.00000         1.00000         1.00000         1.00000         1.00000         1.00000         1.00000         1.00000    
   9      1.00000         1.00000         1.00000         1.00000         1.00000         1.00000         1.00000         1.00000         1.00000         1.00000    
  10      1.00000         1.00000         1.00000         1.00000         1.00000         1.00000         1.00000         1.00000         1.00000         1.00000    
  11      1.00000         1.00000         1.00000         1.00000         1.00000         1.00000         1.00000         1.00000         1.00000         1.00000    
  12      1.00000         1.00000         1.00000         1.00000         1.00000         1.00000         1.00000         1.00000         1.00000         1.00000    
  13      1.00000         1.00000         1.00000         1.00000         1.00000         1.00000         1.00000         1.00000         1.00000         1.00000    
  14      1.00000         1.00000         1.00000         1.00000         1.00000         1.00000         1.00000         1.00000         1.00000         1.00000    
  15      1.00000         1.00000         1.00000         1.00000         1.00000         1.00000         1.00000         1.00000         1.00000         1.00000    
1
  CONCENTRATION IN LAYER   3 AT END OF TIME STEP 119 IN STRESS PERIOD    2
  ---------------------------------------------------------------------------

                1               2               3               4               5               6               7               8               9              10
 ................................................................................................................................................................
   1      1.00000         1.00000         1.00000         1.00000         1.00000         1.00000         1.00000         1.00000         1.00000         1.00000    
   2      1.00000         1.00000         1.00000         1.00000         1.00000         1.00000         1.00000         1.00000         1.00000         1.00000    
   3      1.00000         1.00000         1.00000         1.00000         1.00000         1.00000         1.00000         1.00000         1.00000         1.00000    
   4      1.00000         1.00000         1.00000         1.00000         1.00000         1.00000         1.00000         1.00000         1.00000         1.00000    
   5      1.00000         1.00000         1.00000         1.00000         1.00000         1.00000         1.00000         1.00000         1.00000         1.00000    
   6      1.00000         1.00000         1.00000         1.00000         1.00000         1.00000         1.00000         1.00000         1.00000         1.00000    
   7      1.00000         1.00000         1.00000         1.00000         1.00000         1.00000         1.00000         1.00000         1.00000         1.00000    
   8      1.00000         1.00000         1.00000         1.00000         1.00000         1.00000         1.00000         1.00000         1.00000         1.00000    
   9      1.00000         1.00000         1.00000         1.00000         1.00000         1.00000         1.00000         1.00000         1.00000         1.00000    
  10      1.00000         1.00000         1.00000         1.00000         1.00000         1.00000         1.00000         1.00000         1.00000         1.00000    
  11      1.00000         1.00000         1.00000         1.00000         1.00000         1.00000         1.00000         1.00000         1.00000         1.00000    
  12      1.00000         1.00000         1.00000         1.00000         1.00000         1.00000         1.00000         1.00000         1.00000         1.00000    
  13      1.00000         1.00000         1.00000         1.00000         1.00000         1.00000         1.00000         1.00000         1.00000         1.00000    
  14      1.00000         1.00000         1.00000         1.00000         1.00000         1.00000         1.00000         1.00000         1.00000         1.00000    
  15      1.00000         1.00000         1.00000         1.00000         1.00000         1.00000         1.00000         1.00000         1.00000         1.00000    

 CONCENTRATION WILL BE SAVED ON UNIT 1030 AT END OF TIME STEP  119, STRESS PERIOD    2


  MASS BUDGET FOR ENTIRE MODEL AT END OF TIME STEP  119, STRESS PERIOD   2
  ---------------------------------------------------------------------------------------------------

     CUMULATIVE MASS      M       RATES FOR THIS TIME STEP      M/T          PACKAGE NAME    
     ------------------                 ------------------------                     ----------------

           IN:                                      IN:
           ---                                      ---
     STORAGE-AQUEOUS =          22.3553       STORAGE-AQUEOUS =           2.0474     MST                              
                 RIV =           0.0000                   RIV =           0.0000     SSM_RIV-1                        
                 CHD =           0.0000                   CHD =           0.0000     SSM_CHD-1                        
                 CNC =           9.3138                   CNC =           0.8526     CNC_0                            

            TOTAL IN =          31.6691              TOTAL IN =           2.9001

          OUT:                                     OUT:
          ----                                     ----
     STORAGE-AQUEOUS =           9.7988       STORAGE-AQUEOUS =           0.8967     MST                              
                 RIV =           0.0000                   RIV =           0.0000     SSM_RIV-1                        
                 CHD =          21.0249                   CHD =           1.9260     SSM_CHD-1                        
                 CNC =           0.8453                   CNC =       7.7428E-02     CNC_0                            

           TOTAL OUT =          31.6691             TOTAL OUT =           2.9001

            IN - OUT =       3.3161E-09              IN - OUT =       1.3301E-09

 PERCENT DISCREPANCY =           0.00     PERCENT DISCREPANCY =           0.00




         TIME SUMMARY AT END OF TIME STEP  119 IN STRESS PERIOD    2
                    SECONDS     MINUTES      HOURS       DAYS        YEARS
                    -----------------------------------------------------------
   TIME STEP LENGTH  7200.0      120.00      2.0000     8.33333E-02 2.28154E-04
 STRESS PERIOD TIME 8.56800E+05  14280.      238.00      9.9167     2.71504E-02
         TOTAL TIME 9.43200E+05  15720.      262.00      10.917     2.98882E-02


end timestep


start timestep kper="2" kstp="120" mode="normal"

 UBDSV1 SAVING  STORAGE-AQUEOUS ON UNIT   1029 AT TIME STEP    120, STRESS PERIOD      2
 UBDSV1 SAVING     FLOW-JA-FACE ON UNIT   1029 AT TIME STEP    120, STRESS PERIOD      2
 UBDSV06 SAVING  SOURCE-SINK MIX IN MODEL GWT_RIVERBASE    PACKAGE GWT_RIVERBASE   CONNECTED TO MODEL GWT_RIVERBASE    PACKAGE SSM              ON UNIT   1029 AT TIME STEP    120, STRESS PERIOD      2
 UBDSV06 SAVING              CNC IN MODEL GWT_RIVERBASE    PACKAGE GWT_RIVERBASE   CONNECTED TO MODEL GWT_RIVERBASE    PACKAGE CNC_0            ON UNIT   1029 AT TIME STEP    120, STRESS PERIOD      2
1
  CONCENTRATION IN LAYER   1 AT END OF TIME STEP 120 IN STRESS PERIOD    2
  ---------------------------------------------------------------------------

                1               2               3               4               5               6               7               8               9              10
 ................................................................................................................................................................
   1      1.00000         1.00000         1.00000         1.00000         1.00000         1.00000         1.00000         1.00000         1.00000         1.00000    
   2     0.999977         1.00000        0.999976         1.00000         1.00000         1.00000         1.00000         1.00000         1.00000         1.00000    
   3      1.00000        0.999976         1.00000         1.00000         1.00000         1.00000         1.00000         1.00000         1.00000         1.00000    
   4      1.00000         1.00000        0.999975         1.00000         1.00000         1.00000         1.00000         1.00000         1.00000         1.00000    
   5      1.00000         1.00003         1.00000        0.999974        0.999973         1.00000         1.00000         1.00000         1.00000         1.00000    
   6      1.00004         10.0000         1.00000        0.999974         1.00000        0.999972         1.00000         1.00000         1.00000         1.00000    
   7      1.00002         10.0000         1.00000         1.00000         1.00000         1.00000        0.999972         1.00000         1.00000         1.00000    
   8      1.00000         1.00003         1.00000         1.00000         1.00000         1.00000         1.00000        0.999971        0.999970         1.00000    
   9      1.00000         1.00000         1.00000         1.00000         1.00000         1.00000         1.00000        0.999970         1.00000         1.00000    
  10      1.00000         1.00000         1.00000         1.00000         1.00000         1.00000         1.00000         1.00000         1.00000         1.00000    
  11      1.00000         1.00000         1.00000         1.00000         1.00000         1.00000         1.00000         1.00000         1.00000         1.00000    
  12      1.00000         1.00000         1.00000         1.00000         1.00000         1.00000         1.00000         1.00000         1.00000         1.00000    
  13      1.00000         1.00000         1.00000         1.00000         1.00000         1.00000         1.00000         1.00000         1.00000         1.00000    
  14      1.00000         1.00000         1.00000         1.00000         1.00000         1.00000         1.00000         1.00000         1.00000         1.00000    
  15      1.00000         1.00000         1.00000         1.00000         1.00000         1.00000         1.00000         1.00000         1.00000         1.00000    
1
  CONCENTRATION IN LAYER   2 AT END OF TIME STEP 120 IN STRESS PERIOD    2
  ---------------------------------------------------------------------------

                1               2               3               4               5               6               7               8               9              10
 ................................................................................................................................................................
   1      1.00000         1.00000         1.00000         1.00000         1.00000         1.00000         1.00000         1.00000         1.00000         1.00000    
   2      1.00000         1.00000         1.00000         1.00000         1.00000         1.00000         1.00000         1.00000         1.00000         1.00000    
   3      1.00000         1.00000         1.00000         1.00000         1.00000         1.00000         1.00000         1.00000         1.00000         1.00000    
   4      1.00000         1.00000         1.00000         1.00000         1.00000         1.00000         1.00000         1.00000         1.00000         1.00000    
   5      1.00000         1.00000         1.00000         1.00000         1.00000         1.00000         1.00000         1.00000         1.00000         1.00000    
   6      1.00000         1.00001         1.00000         1.00000         1.00000         1.00000         1.00000         1.00000         1.00000         1.00000    
   7      1.00000         1.00000         1.00000         1.00000         1.00000         1.00000         1.00000         1.00000         1.00000         1.00000    
   8      1.00000         1.00000         1.00000         1.00000         1.00000         1.00000         1.00000         1.00000         1.00000         1.00000    
   9      1.00000         1.00000         1.00000         1.00000         1.00000         1.00000         1.00000         1.00000         1.00000         1.00000    
  10      1.00000         1.00000         1.00000         1.00000         1.00000         1.00000         1.00000         1.00000         1.00000         1.00000    
  11      1.00000         1.00000         1.00000         1.00000         1.00000         1.00000         1.00000         1.00000         1.00000         1.00000    
  12      1.00000         1.00000         1.00000         1.00000         1.00000         1.00000         1.00000         1.00000         1.00000         1.00000    
  13      1.00000         1.00000         1.00000         1.00000         1.00000         1.00000         1.00000         1.00000         1.00000         1.00000    
  14      1.00000         1.00000         1.00000         1.00000         1.00000         1.00000         1.00000         1.00000         1.00000         1.00000    
  15      1.00000         1.00000         1.00000         1.00000         1.00000         1.00000         1.00000         1.00000         1.00000         1.00000    
1
  CONCENTRATION IN LAYER   3 AT END OF TIME STEP 120 IN STRESS PERIOD    2
  ---------------------------------------------------------------------------

                1               2               3               4               5               6               7               8               9              10
 ................................................................................................................................................................
   1      1.00000         1.00000         1.00000         1.00000         1.00000         1.00000         1.00000         1.00000         1.00000         1.00000    
   2      1.00000         1.00000         1.00000         1.00000         1.00000         1.00000         1.00000         1.00000         1.00000         1.00000    
   3      1.00000         1.00000         1.00000         1.00000         1.00000         1.00000         1.00000         1.00000         1.00000         1.00000    
   4      1.00000         1.00000         1.00000         1.00000         1.00000         1.00000         1.00000         1.00000         1.00000         1.00000    
   5      1.00000         1.00000         1.00000         1.00000         1.00000         1.00000         1.00000         1.00000         1.00000         1.00000    
   6      1.00000         1.00000         1.00000         1.00000         1.00000         1.00000         1.00000         1.00000         1.00000         1.00000    
   7      1.00000         1.00000         1.00000         1.00000         1.00000         1.00000         1.00000         1.00000         1.00000         1.00000    
   8      1.00000         1.00000         1.00000         1.00000         1.00000         1.00000         1.00000         1.00000         1.00000         1.00000    
   9      1.00000         1.00000         1.00000         1.00000         1.00000         1.00000         1.00000         1.00000         1.00000         1.00000    
  10      1.00000         1.00000         1.00000         1.00000         1.00000         1.00000         1.00000         1.00000         1.00000         1.00000    
  11      1.00000         1.00000         1.00000         1.00000         1.00000         1.00000         1.00000         1.00000         1.00000         1.00000    
  12      1.00000         1.00000         1.00000         1.00000         1.00000         1.00000         1.00000         1.00000         1.00000         1.00000    
  13      1.00000         1.00000         1.00000         1.00000         1.00000         1.00000         1.00000         1.00000         1.00000         1.00000    
  14      1.00000         1.00000         1.00000         1.00000         1.00000         1.00000         1.00000         1.00000         1.00000         1.00000    
  15      1.00000         1.00000         1.00000         1.00000         1.00000         1.00000         1.00000         1.00000         1.00000         1.00000    

 CONCENTRATION WILL BE SAVED ON UNIT 1030 AT END OF TIME STEP  120, STRESS PERIOD    2


  MASS BUDGET FOR ENTIRE MODEL AT END OF TIME STEP  120, STRESS PERIOD   2
  ---------------------------------------------------------------------------------------------------

     CUMULATIVE MASS      M       RATES FOR THIS TIME STEP      M/T          PACKAGE NAME    
     ------------------                 ------------------------                     ----------------

           IN:                                      IN:
           ---                                      ---
     STORAGE-AQUEOUS =          22.5259       STORAGE-AQUEOUS =           2.0474     MST                              
                 RIV =           0.0000                   RIV =           0.0000     SSM_RIV-1                        
                 CHD =           0.0000                   CHD =           0.0000     SSM_CHD-1                        
                 CNC =           9.3849                   CNC =           0.8526     CNC_0                            

            TOTAL IN =          31.9108              TOTAL IN =           2.9001

          OUT:                                     OUT:
          ----                                     ----
     STORAGE-AQUEOUS =           9.8736       STORAGE-AQUEOUS =           0.8967     MST                              
                 RIV =           0.0000                   RIV =           0.0000     SSM_RIV-1                        
                 CHD =          21.1854                   CHD =           1.9260     SSM_CHD-1                        
                 CNC =           0.8518                   CNC =       7.7428E-02     CNC_0                            

           TOTAL OUT =          31.9108             TOTAL OUT =           2.9001

            IN - OUT =       3.1960E-09              IN - OUT =      -1.4413E-09

 PERCENT DISCREPANCY =           0.00     PERCENT DISCREPANCY =          -0.00




         TIME SUMMARY AT END OF TIME STEP  120 IN STRESS PERIOD    2
                    SECONDS     MINUTES      HOURS       DAYS        YEARS
                    -----------------------------------------------------------
   TIME STEP LENGTH  7200.0      120.00      2.0000     8.33333E-02 2.28154E-04
 STRESS PERIOD TIME 8.64000E+05  14400.      240.00      10.000     2.73785E-02
         TOTAL TIME 9.50400E+05  15840.      264.00      11.000     3.01164E-02


end timestep


start timestep kper="3" kstp="1" mode="normal"


 OUTPUT CONTROL FOR STRESS PERIOD 3 IS REPEATED USING SETTINGS FROM A PREVIOUS STRESS PERIOD.
